<?xml version="1.0" encoding="UTF-8"?>

<!-- generated on 10/24/17 14:36:12 by SUMO netconvert Version 0.31.0
<?xml version="1.0" encoding="UTF-8"?>

<configuration xmlns:xsi="http://www.w3.org/2001/XMLSchema-instance" xsi:noNamespaceSchemaLocation="http://sumo.dlr.de/xsd/netconvertConfiguration.xsd">

    <input>
        <node-files value="C:\Users\Niels\Documents\HvA\Jaar_3\HR\Sumo\Intersection-Control\barcelonaX.nod.xml"/>
        <edge-files value="C:\Users\Niels\Documents\HvA\Jaar_3\HR\Sumo\Intersection-Control\barcelonaX.edg.xml"/>
        <connection-files value="C:\Users\Niels\Documents\HvA\Jaar_3\HR\Sumo\Intersection-Control\barcelonaX.con.xml"/>
        <type-files value="C:\Users\Niels\Documents\HvA\Jaar_3\HR\Sumo\Intersection-Control\barcelonaX.typ.xml"/>
    </input>

    <output>
        <output-file value="C:\Users\Niels\Documents\HvA\Jaar_3\HR\Sumo\Intersection-Control\barcelonaX.net.xml"/>
    </output>

    <processing>
        <speed-in-kmh value="false"/>
    </processing>

    <report>
        <xml-validation value="never"/>
    </report>

</configuration>
-->

<net version="0.27" xmlns:xsi="http://www.w3.org/2001/XMLSchema-instance" xsi:noNamespaceSchemaLocation="http://sumo.dlr.de/xsd/net_file.xsd">

    <location netOffset="-429173.93,-4581800.95" convBoundary="0.00,0.00,758.32,1238.67" origBoundary="2.143824,41.381367,2.161980,41.395833" projParameter="+proj=utm +zone=31 +ellps=WGS84 +datum=WGS84 +units=m +no_defs"/>

    <type id="highway.bridleway" priority="1" numLanes="1" speed="2.78" allow="pedestrian" oneway="1" width="2.00"/>
    <type id="highway.bus_guideway" priority="1" numLanes="1" speed="8.33" allow="bus" oneway="1"/>
    <type id="highway.cycleway" priority="1" numLanes="1" speed="5.56" allow="bicycle" oneway="0" width="1.00"/>
    <type id="highway.footway" priority="1" numLanes="1" speed="2.78" allow="pedestrian" oneway="1" width="2.00"/>
    <type id="highway.ford" priority="1" numLanes="1" speed="2.78" allow="army" oneway="0"/>
    <type id="highway.living_street" priority="3" numLanes="1" speed="2.78" disallow="tram rail_urban rail rail_electric ship" oneway="0"/>
    <type id="highway.motorway" priority="13" numLanes="2" speed="44.44" allow="private emergency authority army vip passenger hov taxi bus coach delivery truck trailer motorcycle evehicle custom1 custom2" oneway="1"/>
    <type id="highway.motorway_link" priority="12" numLanes="1" speed="22.22" allow="private emergency authority army vip passenger hov taxi bus coach delivery truck trailer motorcycle evehicle custom1 custom2" oneway="1"/>
    <type id="highway.path" priority="1" numLanes="1" speed="2.78" allow="bicycle pedestrian" oneway="1" width="2.00"/>
    <type id="highway.pedestrian" priority="1" numLanes="1" speed="2.78" allow="pedestrian" oneway="1" width="2.00"/>
    <type id="highway.primary" priority="9" numLanes="2" speed="27.78" disallow="tram rail_urban rail rail_electric ship" oneway="0"/>
    <type id="highway.primary_link" priority="8" numLanes="1" speed="22.22" disallow="tram rail_urban rail rail_electric ship" oneway="0"/>
    <type id="highway.raceway" priority="14" numLanes="2" speed="83.33" allow="vip" oneway="0"/>
    <type id="highway.residential" priority="4" numLanes="1" speed="13.89" disallow="tram rail_urban rail rail_electric ship" oneway="0"/>
    <type id="highway.secondary" priority="7" numLanes="2" speed="27.78" disallow="tram rail_urban rail rail_electric ship" oneway="0"/>
    <type id="highway.secondary_link" priority="6" numLanes="1" speed="22.22" disallow="tram rail_urban rail rail_electric ship" oneway="0"/>
    <type id="highway.service" priority="2" numLanes="1" speed="5.56" allow="delivery bicycle pedestrian" oneway="0"/>
    <type id="highway.services" priority="1" numLanes="1" speed="8.33" disallow="tram rail_urban rail rail_electric ship" oneway="0"/>
    <type id="highway.stairs" priority="1" numLanes="1" speed="1.39" allow="pedestrian" oneway="1" width="2.00"/>
    <type id="highway.step" priority="1" numLanes="1" speed="1.39" allow="pedestrian" oneway="1" width="2.00"/>
    <type id="highway.steps" priority="1" numLanes="1" speed="1.39" allow="pedestrian" oneway="1" width="2.00"/>
    <type id="highway.tertiary" priority="6" numLanes="1" speed="22.22" disallow="tram rail_urban rail rail_electric ship" oneway="0"/>
    <type id="highway.tertiary_link" priority="5" numLanes="1" speed="22.22" disallow="tram rail_urban rail rail_electric ship" oneway="0"/>
    <type id="highway.track" priority="1" numLanes="1" speed="5.56" disallow="tram rail_urban rail rail_electric ship" oneway="0"/>
    <type id="highway.trunk" priority="11" numLanes="2" speed="27.78" disallow="tram rail_urban rail rail_electric bicycle pedestrian ship" oneway="0"/>
    <type id="highway.trunk_link" priority="10" numLanes="1" speed="22.22" disallow="tram rail_urban rail rail_electric bicycle pedestrian ship" oneway="0"/>
    <type id="highway.unclassified" priority="5" numLanes="1" speed="13.89" disallow="tram rail_urban rail rail_electric ship" oneway="0"/>
    <type id="highway.unsurfaced" priority="1" numLanes="1" speed="8.33" disallow="tram rail_urban rail rail_electric ship" oneway="0"/>
    <type id="railway.light_rail" priority="15" numLanes="1" speed="27.78" allow="rail_urban" oneway="1"/>
    <type id="railway.preserved" priority="15" numLanes="1" speed="27.78" allow="rail" oneway="1"/>
    <type id="railway.rail" priority="15" numLanes="1" speed="83.33" allow="rail rail_electric" oneway="1"/>
    <type id="railway.subway" priority="15" numLanes="1" speed="27.78" allow="rail_urban" oneway="1"/>
    <type id="railway.tram" priority="15" numLanes="1" speed="13.89" allow="tram" oneway="1"/>

    <edge id=":1886635528_0" function="internal">
        <lane id=":1886635528_0_0" index="0" disallow="tram rail_urban rail rail_electric ship" speed="22.22" length="0.10" shape="302.82,884.65 302.82,884.65"/>
    </edge>
    <edge id=":1886635535_0" function="internal">
        <lane id=":1886635535_0_0" index="0" disallow="tram rail_urban rail rail_electric ship" speed="22.22" length="0.29" shape="358.56,939.28 358.77,939.48"/>
    </edge>
    <edge id=":1889913549_0" function="internal">
        <lane id=":1889913549_0_0" index="0" disallow="tram rail_urban rail rail_electric ship" speed="13.89" length="0.29" shape="395.56,790.38 395.37,790.18"/>
        <lane id=":1889913549_0_1" index="1" disallow="tram rail_urban rail rail_electric ship" speed="13.89" length="0.29" shape="397.88,788.03 397.66,787.81"/>
    </edge>
    <edge id=":1889913593_0" function="internal">
        <lane id=":1889913593_0_0" index="0" disallow="tram rail_urban rail rail_electric ship" speed="13.89" length="0.10" shape="453.32,847.46 453.32,847.46"/>
        <lane id=":1889913593_0_1" index="1" disallow="tram rail_urban rail rail_electric ship" speed="13.89" length="0.10" shape="455.64,845.12 455.64,845.12"/>
    </edge>
    <edge id=":1891535248_0" function="internal">
        <lane id=":1891535248_0_0" index="0" disallow="tram rail_urban rail rail_electric ship" speed="13.89" length="0.10" shape="298.92,695.90 298.92,695.90"/>
        <lane id=":1891535248_0_1" index="1" disallow="tram rail_urban rail rail_electric ship" speed="13.89" length="0.10" shape="301.22,693.54 301.22,693.54"/>
    </edge>
    <edge id=":1891535285_0" function="internal">
        <lane id=":1891535285_0_0" index="0" disallow="tram rail_urban rail rail_electric ship" speed="13.89" length="0.30" shape="360.38,755.83 360.18,755.63"/>
        <lane id=":1891535285_0_1" index="1" disallow="tram rail_urban rail rail_electric ship" speed="13.89" length="0.30" shape="362.71,753.48 362.49,753.27"/>
    </edge>
    <edge id=":1891535303_0" function="internal">
        <lane id=":1891535303_0_0" index="0" disallow="tram rail_urban rail rail_electric ship" speed="13.89" length="0.10" shape="368.32,790.31 368.32,790.31"/>
    </edge>
    <edge id=":1891535358_0" function="internal">
        <lane id=":1891535358_0_0" index="0" disallow="tram rail_urban rail rail_electric ship" speed="13.89" length="0.30" shape="307.56,853.16 307.76,852.94"/>
    </edge>
    <edge id=":2293678161_0" function="internal">
        <lane id=":2293678161_0_0" index="0" disallow="tram rail_urban rail rail_electric ship" speed="13.89" length="0.30" shape="188.26,963.11 188.04,962.90"/>
        <lane id=":2293678161_0_1" index="1" disallow="tram rail_urban rail rail_electric ship" speed="13.89" length="0.30" shape="190.55,960.74 190.34,960.53"/>
    </edge>
    <edge id=":2293678868_0" function="internal">
        <lane id=":2293678868_0_0" index="0" disallow="tram rail_urban rail rail_electric ship" speed="22.22" length="0.24" shape="282.66,865.88 282.83,866.04"/>
    </edge>
    <edge id=":2508272978_0" function="internal">
        <lane id=":2508272978_0_0" index="0" disallow="tram rail_urban rail rail_electric ship" speed="27.78" length="0.30" shape="751.48,4.65 751.69,4.43"/>
        <lane id=":2508272978_0_1" index="1" disallow="tram rail_urban rail rail_electric ship" speed="27.78" length="0.30" shape="753.85,6.95 754.06,6.73"/>
    </edge>
    <edge id=":2641101887_0" function="internal">
        <lane id=":2641101887_0_0" index="0" disallow="tram rail_urban rail rail_electric ship" speed="27.78" length="0.15" shape="287.87,675.81 287.76,675.91"/>
        <lane id=":2641101887_0_1" index="1" disallow="tram rail_urban rail rail_electric ship" speed="27.78" length="0.15" shape="285.56,673.45 285.45,673.55"/>
        <lane id=":2641101887_0_2" index="2" disallow="tram rail_urban rail rail_electric ship" speed="27.78" length="0.15" shape="283.25,671.08 283.15,671.19"/>
        <lane id=":2641101887_0_3" index="3" disallow="tram rail_urban rail rail_electric ship" speed="27.78" length="0.15" shape="280.95,668.72 280.84,668.83"/>
    </edge>
    <edge id=":2641101892_0" function="internal">
        <lane id=":2641101892_0_0" index="0" disallow="tram rail_urban rail rail_electric ship" speed="13.89" length="0.10" shape="385.04,773.85 385.04,773.85"/>
    </edge>
    <edge id=":30237638_0" function="internal">
        <lane id=":30237638_0_0" index="0" disallow="tram rail_urban rail rail_electric ship" speed="20.84" length="5.40" shape="100.49,878.18 99.35,877.38 98.17,877.16 96.96,877.51 95.72,878.44"/>
    </edge>
    <edge id=":30237638_1" function="internal">
        <lane id=":30237638_1_0" index="0" disallow="tram rail_urban rail rail_electric ship" speed="20.84" length="8.14" shape="100.49,878.18 98.31,876.37 96.41,875.42 94.78,875.31 93.43,876.06"/>
    </edge>
    <edge id=":30237638_2" function="internal">
        <lane id=":30237638_2_0" index="0" disallow="tram rail_urban rail rail_electric ship" speed="13.89" length="16.19" shape="100.49,878.18 88.85,866.92"/>
        <lane id=":30237638_2_1" index="1" disallow="tram rail_urban rail rail_electric ship" speed="13.89" length="16.19" shape="102.78,875.81 91.15,864.55"/>
    </edge>
    <edge id=":30237638_4" function="internal">
        <lane id=":30237638_4_0" index="0" disallow="tram rail_urban rail rail_electric ship" speed="27.78" length="9.79" shape="102.78,871.33 95.72,878.44"/>
        <lane id=":30237638_4_1" index="1" disallow="tram rail_urban rail rail_electric ship" speed="27.78" length="9.79" shape="100.38,869.06 93.43,876.06"/>
        <lane id=":30237638_4_2" index="2" disallow="tram rail_urban rail rail_electric ship" speed="27.78" length="9.79" shape="97.99,866.79 91.14,873.69"/>
        <lane id=":30237638_4_3" index="3" disallow="tram rail_urban rail rail_electric ship" speed="27.78" length="9.79" shape="95.59,864.52 88.85,871.31"/>
    </edge>
    <edge id=":30237638_8" function="internal">
        <lane id=":30237638_8_0" index="0" disallow="tram rail_urban rail rail_electric ship" speed="20.84" length="5.08" shape="95.59,864.52 94.51,865.37 93.41,865.66 92.29,865.39 91.15,864.55"/>
    </edge>
    <edge id=":30237639_0" function="internal">
        <lane id=":30237639_0_0" index="0" disallow="tram rail_urban rail rail_electric ship" speed="25.00" length="5.08" shape="192.78,776.26 191.96,777.41 191.70,778.53 191.99,779.63 192.84,780.71"/>
    </edge>
    <edge id=":30237639_1" function="internal">
        <lane id=":30237639_1_0" index="0" disallow="tram rail_urban rail rail_electric ship" speed="27.78" length="6.28" shape="192.78,776.26 188.46,780.83"/>
        <lane id=":30237639_1_1" index="1" disallow="tram rail_urban rail rail_electric ship" speed="27.78" length="6.28" shape="190.38,773.99 186.06,778.56"/>
        <lane id=":30237639_1_2" index="2" disallow="tram rail_urban rail rail_electric ship" speed="27.78" length="6.28" shape="187.98,771.73 183.67,776.29"/>
        <lane id=":30237639_1_3" index="3" disallow="tram rail_urban rail rail_electric ship" speed="27.78" length="6.28" shape="185.58,769.46 181.27,774.03"/>
    </edge>
    <edge id=":30237639_5" function="internal">
        <lane id=":30237639_5_0" index="0" disallow="tram rail_urban rail rail_electric ship" speed="22.22" length="16.12" shape="181.20,769.56 192.84,780.71"/>
    </edge>
    <edge id=":30237639_6" function="internal">
        <lane id=":30237639_6_0" index="0" disallow="tram rail_urban rail rail_electric ship" speed="25.00" length="7.90" shape="181.20,769.56 183.08,771.66 184.12,773.48 184.32,775.02 183.67,776.29"/>
    </edge>
    <edge id=":30237639_7" function="internal">
        <lane id=":30237639_7_0" index="0" disallow="tram rail_urban rail rail_electric ship" speed="25.00" length="5.08" shape="181.20,769.56 182.04,770.66 182.34,771.76 182.08,772.89 181.27,774.03"/>
    </edge>
    <edge id=":30237640_0" function="internal">
        <lane id=":30237640_0_0" index="0" disallow="tram rail_urban rail rail_electric ship" speed="20.84" length="6.29" shape="285.39,682.72 284.21,681.97 282.91,681.91 281.49,682.54 279.96,683.87"/>
    </edge>
    <edge id=":30237640_1" function="internal">
        <lane id=":30237640_1_0" index="0" disallow="tram rail_urban rail rail_electric ship" speed="20.84" length="8.98" shape="285.39,682.72 283.17,680.96 281.12,680.19 279.25,680.40 277.56,681.61"/>
    </edge>
    <edge id=":30237640_2" function="internal">
        <lane id=":30237640_2_0" index="0" disallow="tram rail_urban rail rail_electric ship" speed="13.89" length="16.25" shape="285.39,682.72 281.78,679.56 279.04,677.69 276.30,675.83 272.65,672.70"/>
        <lane id=":30237640_2_1" index="1" disallow="tram rail_urban rail rail_electric ship" speed="13.89" length="16.25" shape="287.70,680.36 284.08,677.19 281.33,675.32 278.59,673.46 274.94,670.32"/>
    </edge>
    <edge id=":30237640_4" function="internal">
        <lane id=":30237640_4_0" index="0" disallow="tram rail_urban rail rail_electric ship" speed="27.78" length="11.19" shape="287.65,676.02 279.96,683.87"/>
        <lane id=":30237640_4_1" index="1" disallow="tram rail_urban rail rail_electric ship" speed="27.78" length="11.19" shape="285.34,673.66 277.56,681.61"/>
        <lane id=":30237640_4_2" index="2" disallow="tram rail_urban rail rail_electric ship" speed="27.78" length="11.19" shape="283.04,671.29 275.16,679.34"/>
        <lane id=":30237640_4_3" index="3" disallow="tram rail_urban rail rail_electric ship" speed="27.78" length="11.19" shape="280.74,668.93 272.76,677.08"/>
    </edge>
    <edge id=":30237640_8" function="internal">
        <lane id=":30237640_8_0" index="0" disallow="tram rail_urban rail rail_electric ship" speed="20.84" length="6.64" shape="280.74,668.93 279.03,670.33 277.49,671.03 276.13,671.02 274.94,670.32"/>
    </edge>
    <edge id=":30237640_9" function="internal">
        <lane id=":30237640_9_0" index="0" disallow="tram rail_urban rail rail_electric ship" speed="20.84" length="4.04" shape="280.74,668.93 280.06,669.32 279.24,669.28 278.30,668.82 277.22,667.93"/>
    </edge>
    <edge id=":30237696_0" function="internal">
        <lane id=":30237696_0_0" index="0" disallow="tram rail_urban rail rail_electric ship" speed="20.84" length="7.92" shape="1.19,782.04 -0.14,780.33 -0.60,778.60 -0.19,776.86 1.09,775.10"/>
    </edge>
    <edge id=":30237696_1" function="internal">
        <lane id=":30237696_1_0" index="0" disallow="tram rail_urban rail rail_electric ship" speed="20.84" length="2.59" shape="3.49,779.67 3.06,779.11 2.90,778.55 3.04,777.98 3.46,777.41"/>
    </edge>
    <edge id=":30237697_0" function="internal">
        <lane id=":30237697_0_0" index="0" disallow="tram rail_urban rail rail_electric ship" speed="25.00" length="5.01" shape="88.98,680.39 90.09,681.22 91.18,681.49 92.28,681.20 93.37,680.36"/>
    </edge>
    <edge id=":30237697_1" function="internal">
        <lane id=":30237697_1_0" index="0" disallow="tram rail_urban rail rail_electric ship" speed="22.22" length="9.53" shape="88.98,680.39 95.78,687.06"/>
    </edge>
    <edge id=":30237697_2" function="internal">
        <lane id=":30237697_2_0" index="0" disallow="tram rail_urban rail rail_electric ship" speed="27.78" length="6.22" shape="89.02,684.82 93.37,680.36"/>
        <lane id=":30237697_2_1" index="1" disallow="tram rail_urban rail rail_electric ship" speed="27.78" length="6.22" shape="91.39,687.12 95.73,682.66"/>
    </edge>
    <edge id=":30237697_4" function="internal">
        <lane id=":30237697_4_0" index="0" disallow="tram rail_urban rail rail_electric ship" speed="25.00" length="5.01" shape="91.39,687.12 92.47,686.29 93.57,686.00 94.67,686.26 95.78,687.06"/>
    </edge>
    <edge id=":30237698_0" function="internal">
        <lane id=":30237698_0_0" index="0" disallow="tram rail_urban rail rail_electric ship" speed="20.84" length="13.14" shape="188.47,591.97 186.86,589.57 186.67,586.87 187.92,583.85 190.60,580.52"/>
    </edge>
    <edge id=":30237698_1" function="internal">
        <lane id=":30237698_1_0" index="0" disallow="tram rail_urban rail rail_electric ship" speed="20.84" length="7.87" shape="190.76,589.58 190.04,588.35 190.18,586.81 191.15,584.96 192.96,582.82"/>
    </edge>
    <edge id=":30237698_2" function="internal">
        <lane id=":30237698_2_0" index="0" disallow="tram rail_urban rail rail_electric ship" speed="27.78" length="12.80" shape="181.67,589.69 190.60,580.52"/>
        <lane id=":30237698_2_1" index="1" disallow="tram rail_urban rail rail_electric ship" speed="27.78" length="12.80" shape="184.03,591.99 192.96,582.82"/>
    </edge>
    <edge id=":30237699_0" function="internal">
        <lane id=":30237699_0_0" index="0" disallow="tram rail_urban rail rail_electric ship" speed="27.78" length="0.10" shape="280.92,487.78 280.92,487.78"/>
        <lane id=":30237699_0_1" index="1" disallow="tram rail_urban rail rail_electric ship" speed="27.78" length="0.10" shape="283.28,490.08 283.28,490.08"/>
    </edge>
    <edge id=":30237700_0" function="internal">
        <lane id=":30237700_0_0" index="0" disallow="tram rail_urban rail rail_electric ship" speed="27.78" length="0.10" shape="375.39,390.78 375.39,390.78"/>
        <lane id=":30237700_0_1" index="1" disallow="tram rail_urban rail rail_electric ship" speed="27.78" length="0.10" shape="377.75,393.08 377.75,393.08"/>
    </edge>
    <edge id=":30238025_0" function="internal">
        <lane id=":30238025_0_0" index="0" disallow="tram rail_urban rail rail_electric ship" speed="13.89" length="6.16" shape="383.96,779.15 379.54,774.83"/>
        <lane id=":30238025_0_1" index="1" disallow="tram rail_urban rail rail_electric ship" speed="13.89" length="6.16" shape="386.25,776.78 381.87,772.48"/>
    </edge>
    <edge id=":30238025_2" function="internal">
        <lane id=":30238025_2_0" index="0" disallow="tram rail_urban rail rail_electric ship" speed="13.89" length="3.22" shape="386.25,776.78 385.50,776.28 384.59,775.80 383.96,775.32 384.02,774.83"/>
    </edge>
    <edge id=":30238025_3" function="internal">
        <lane id=":30238025_3_0" index="0" disallow="tram rail_urban rail rail_electric ship" speed="13.89" length="5.01" shape="379.54,779.21 380.37,778.12 380.65,777.02 380.37,775.92 379.54,774.83"/>
    </edge>
    <edge id=":30238025_4" function="internal">
        <lane id=":30238025_4_0" index="0" disallow="tram rail_urban rail rail_electric ship" speed="13.89" length="6.27" shape="379.54,779.21 384.02,774.83"/>
    </edge>
    <edge id=":30243322_0" function="internal">
        <lane id=":30243322_0_0" index="0" disallow="tram rail_urban rail rail_electric ship" speed="13.89" length="0.29" shape="571.11,580.23 571.31,580.03"/>
    </edge>
    <edge id=":30243366_0" function="internal">
        <lane id=":30243366_0_0" index="0" disallow="tram rail_urban rail rail_electric ship" speed="13.89" length="0.25" shape="471.58,680.83 471.76,680.65"/>
    </edge>
    <edge id=":30247166_0" function="internal">
        <lane id=":30247166_0_0" index="0" disallow="tram rail_urban rail rail_electric ship" speed="13.89" length="6.40" shape="194.69,969.33 190.10,964.88"/>
        <lane id=":30247166_0_1" index="1" disallow="tram rail_urban rail rail_electric ship" speed="13.89" length="6.40" shape="196.99,966.96 192.39,962.51"/>
    </edge>
    <edge id=":30247166_2" function="internal">
        <lane id=":30247166_2_0" index="0" disallow="tram rail_urban rail rail_electric ship" speed="13.89" length="5.04" shape="196.99,966.96 196.14,965.86 195.86,964.76 196.15,963.66 197.00,962.57"/>
    </edge>
    <edge id=":30247166_3" function="internal">
        <lane id=":30247166_3_0" index="0" disallow="tram rail_urban rail rail_electric ship" speed="13.89" length="5.03" shape="190.12,969.27 190.96,968.17 191.23,967.07 190.95,965.97 190.10,964.88"/>
    </edge>
    <edge id=":30247166_4" function="internal">
        <lane id=":30247166_4_0" index="0" disallow="tram rail_urban rail rail_electric ship" speed="13.89" length="9.60" shape="190.12,969.27 197.00,962.57"/>
    </edge>
    <edge id=":30247167_0" function="internal">
        <lane id=":30247167_0_0" index="0" disallow="tram rail_urban rail rail_electric ship" speed="18.06" length="5.05" shape="286.84,870.13 287.94,870.96 289.04,871.24 290.14,870.95 291.24,870.09"/>
    </edge>
    <edge id=":30247167_1" function="internal">
        <lane id=":30247167_1_0" index="0" disallow="tram rail_urban rail rail_electric ship" speed="22.22" length="6.31" shape="286.84,870.13 291.40,874.47"/>
    </edge>
    <edge id=":30247167_2" function="internal">
        <lane id=":30247167_2_0" index="0" disallow="tram rail_urban rail rail_electric ship" speed="13.89" length="6.25" shape="286.86,874.55 291.24,870.09"/>
    </edge>
    <edge id=":30247167_3" function="internal">
        <lane id=":30247167_3_0" index="0" disallow="tram rail_urban rail rail_electric ship" speed="18.06" length="5.12" shape="286.86,874.55 287.96,873.73 289.09,873.44 290.23,873.69 291.40,874.47"/>
    </edge>
    <edge id=":30247432_0" function="internal">
        <lane id=":30247432_0_0" index="0" disallow="tram rail_urban rail rail_electric ship" speed="13.89" length="0.30" shape="286.93,1058.74 286.73,1058.54"/>
        <lane id=":30247432_0_1" index="1" disallow="tram rail_urban rail rail_electric ship" speed="13.89" length="0.30" shape="289.24,1056.39 289.02,1056.17"/>
    </edge>
    <edge id=":3202969428_0" function="internal">
        <lane id=":3202969428_0_0" index="0" disallow="tram rail_urban rail rail_electric ship" speed="22.22" length="0.30" shape="54.65,646.16 54.87,646.38"/>
    </edge>
    <edge id=":3314271834_0" function="internal">
        <lane id=":3314271834_0_0" index="0" disallow="tram rail_urban rail rail_electric ship" speed="27.78" length="0.10" shape="670.30,88.00 670.30,88.00"/>
        <lane id=":3314271834_0_1" index="1" disallow="tram rail_urban rail rail_electric ship" speed="27.78" length="0.10" shape="672.66,90.30 672.66,90.30"/>
    </edge>
    <edge id=":3314271835_0" function="internal">
        <lane id=":3314271835_0_0" index="0" disallow="tram rail_urban rail rail_electric ship" speed="27.78" length="0.30" shape="635.03,124.20 635.24,123.98"/>
        <lane id=":3314271835_0_1" index="1" disallow="tram rail_urban rail rail_electric ship" speed="27.78" length="0.30" shape="637.40,126.50 637.61,126.28"/>
    </edge>
    <edge id=":3314294619_0" function="internal">
        <lane id=":3314294619_0_0" index="0" disallow="tram rail_urban rail rail_electric ship" speed="27.78" length="0.30" shape="541.57,220.16 541.78,219.94"/>
        <lane id=":3314294619_0_1" index="1" disallow="tram rail_urban rail rail_electric ship" speed="27.78" length="0.30" shape="543.94,222.46 544.15,222.24"/>
    </edge>
    <edge id=":3314294624_0" function="internal">
        <lane id=":3314294624_0_0" index="0" disallow="tram rail_urban rail rail_electric ship" speed="27.78" length="0.10" shape="576.94,183.85 576.94,183.85"/>
        <lane id=":3314294624_0_1" index="1" disallow="tram rail_urban rail rail_electric ship" speed="27.78" length="0.10" shape="579.30,186.15 579.30,186.15"/>
    </edge>

    <edge id="238866887" from="30237638" to="30237615" priority="7" type="highway.secondary" spreadType="center">
        <lane id="238866887_0" index="0" disallow="tram rail_urban rail rail_electric ship" speed="27.78" length="124.27" shape="95.72,878.44 6.21,964.65"/>
        <lane id="238866887_1" index="1" disallow="tram rail_urban rail rail_electric ship" speed="27.78" length="124.27" shape="93.43,876.06 3.92,962.27"/>
        <lane id="238866887_2" index="2" disallow="tram rail_urban rail rail_electric ship" speed="27.78" length="124.27" shape="91.14,873.69 1.64,959.89"/>
        <lane id="238866887_3" index="3" disallow="tram rail_urban rail rail_electric ship" speed="27.78" length="124.27" shape="88.85,871.31 -0.65,957.51"/>
    </edge>
    <edge id="238866891" from="30237638" to="30237696" priority="4" type="highway.residential" spreadType="center">
        <lane id="238866891_0" index="0" disallow="tram rail_urban rail rail_electric ship" speed="13.89" length="122.02" shape="88.85,866.92 1.19,782.04"/>
        <lane id="238866891_1" index="1" disallow="tram rail_urban rail rail_electric ship" speed="13.89" length="122.02" shape="91.15,864.55 3.49,779.67"/>
    </edge>
    <edge id="294085176#0" from="30238026" to="1889913593" priority="4" type="highway.residential" spreadType="center">
        <lane id="294085176#0_0" index="0" disallow="tram rail_urban rail rail_electric ship" speed="13.89" length="26.59" shape="472.23,866.15 453.32,847.46"/>
        <lane id="294085176#0_1" index="1" disallow="tram rail_urban rail rail_electric ship" speed="13.89" length="26.59" shape="474.55,863.81 455.64,845.12"/>
    </edge>
    <edge id="294085176#1" from="1889913593" to="1889913549" priority="4" type="highway.residential" spreadType="center">
        <lane id="294085176#1_0" index="0" disallow="tram rail_urban rail rail_electric ship" speed="13.89" length="81.21" shape="453.32,847.46 395.56,790.38"/>
        <lane id="294085176#1_1" index="1" disallow="tram rail_urban rail rail_electric ship" speed="13.89" length="81.21" shape="455.64,845.12 397.88,788.03"/>
    </edge>
    <edge id="294085176#2" from="1889913549" to="30238025" priority="4" type="highway.residential" spreadType="center">
        <lane id="294085176#2_0" index="0" disallow="tram rail_urban rail rail_electric ship" speed="13.89" length="15.87" shape="395.37,790.18 383.96,779.15"/>
        <lane id="294085176#2_1" index="1" disallow="tram rail_urban rail rail_electric ship" speed="13.89" length="15.87" shape="397.66,787.81 386.25,776.78"/>
    </edge>
    <edge id="294085176#3" from="30238025" to="1891535285" priority="4" type="highway.residential" spreadType="center">
        <lane id="294085176#3_0" index="0" disallow="tram rail_urban rail rail_electric ship" speed="13.89" length="26.98" shape="379.54,774.83 360.38,755.83"/>
        <lane id="294085176#3_1" index="1" disallow="tram rail_urban rail rail_electric ship" speed="13.89" length="26.98" shape="381.87,772.48 362.71,753.48"/>
    </edge>
    <edge id="294085176#4" from="1891535285" to="1891535248" priority="4" type="highway.residential" spreadType="center">
        <lane id="294085176#4_0" index="0" disallow="tram rail_urban rail rail_electric ship" speed="13.89" length="85.56" shape="360.18,755.63 298.92,695.90"/>
        <lane id="294085176#4_1" index="1" disallow="tram rail_urban rail rail_electric ship" speed="13.89" length="85.56" shape="362.49,753.27 301.22,693.54"/>
    </edge>
    <edge id="294085176#5" from="1891535248" to="30237640" priority="4" type="highway.residential" spreadType="center">
        <lane id="294085176#5_0" index="0" disallow="tram rail_urban rail rail_electric ship" speed="13.89" length="18.89" shape="298.92,695.90 285.39,682.72"/>
        <lane id="294085176#5_1" index="1" disallow="tram rail_urban rail rail_electric ship" speed="13.89" length="18.89" shape="301.22,693.54 287.70,680.36"/>
    </edge>
    <edge id="31029328#0" from="30237640" to="30237639" priority="7" type="highway.secondary" spreadType="center">
        <lane id="31029328#0_0" index="0" disallow="tram rail_urban rail rail_electric ship" speed="27.78" length="127.03" shape="279.96,683.87 192.78,776.26"/>
        <lane id="31029328#0_1" index="1" disallow="tram rail_urban rail rail_electric ship" speed="27.78" length="127.03" shape="277.56,681.61 190.38,773.99"/>
        <lane id="31029328#0_2" index="2" disallow="tram rail_urban rail rail_electric ship" speed="27.78" length="127.03" shape="275.16,679.34 187.98,771.73"/>
        <lane id="31029328#0_3" index="3" disallow="tram rail_urban rail rail_electric ship" speed="27.78" length="127.03" shape="272.76,677.08 185.58,769.46"/>
    </edge>
    <edge id="31029328#1" from="30237639" to="30237638" priority="7" type="highway.secondary" spreadType="center" shape="187.00,775.17 126.20,839.46 95.87,871.42">
        <lane id="31029328#1_0" index="0" disallow="tram rail_urban rail rail_electric ship" speed="27.78" length="124.62" shape="188.46,780.83 129.79,842.86 102.78,871.33"/>