<?xml version="1.0" encoding="UTF-8"?>
<edges version="0.27" xmlns:xsi="http://www.w3.org/2001/XMLSchema-instance" xsi:noNamespaceSchemaLocation="http://sumo.dlr.de/xsd/edges_file.xsd">

    <!-- Horizontal -->
    <edge id="AD" from="1" to="101" priority="1" numLanes="2" speed="8.33" />
    <edge id="BE" from="2" to="102" priority="1" numLanes="2" speed="8.33" />
    <edge id="DH" from="101" to="103" priority="1" numLanes="2" speed="8.33" />
    <edge id="EI" from="102" to="104" priority="1" numLanes="2" speed="8.33" />
    <edge id="HK" from="103" to="7" priority="1" numLanes="2" speed="8.33" />
    <edge id="IL" from="104" to="8" priority="1" numLanes="2" speed="8.33" />

    <!-- Vertical -->
    <edge id="CD" from="3" to="101" priority="1" numLanes="4" speed="8.33" />
    <edge id="DE" from="101" to="102" priority="1" numLanes="4" speed="8.33" />
    <edge id="EF" from="102" to="4" priority="1" numLanes="4" speed="8.33" />
    <edge id="GH" from="5" to="103" priority="1" numLanes="3" speed="8.33" />
    <edge id="HI" from="103" to="104" priority="1" numLanes="3" speed="8.33" />
    <edge id="IJ" from="104" to="6" priority="1" numLanes="3" speed="8.33" />
</edges>
