<?xml version="1.0" encoding="UTF-8"?>
<nodes version="0.27" xmlns:xsi="http://www.w3.org/2001/XMLSchema-instance" xsi:noNamespaceSchemaLocation="http://sumo.dlr.de/xsd/nodes_file.xsd">
    <location netOffset="0.00,0.00" convBoundary="-300.00,-300.00,300.00,300.00" origBoundary="-10000000000.00,-10000000000.00,10000000000.00,10000000000.00" projParameter="!" />

    <node id="A" x="-300.00" y="0.00" type="dead_end" />
    <node id="B" x="300.00" y="0.00" type="dead_end" />
    <node id="C" x="0.00" y="300.00" type="dead_end" />
    <node id="D" x="0.00" y="-300.00" type="dead_end" />
    <node id="X" x="0.00" y="0.00" type="traffic_light" tl="2" />
</nodes>
