<?xml version="1.0" encoding="UTF-8"?>
<connections version="0.27" xmlns:xsi="http://www.w3.org/2001/XMLSchema-instance" xsi:noNamespaceSchemaLocation="http://sumo.dlr.de/xsd/connections_file.xsd">
    <!-- from A2 -->
    <connection from="AX" to="XB" fromLane="0" toLane="0" />
    <connection from="AX" to="XC" fromLane="0" toLane="0" />
    <connection from="AX" to="XD" fromLane="0" toLane="0" />
    <!-- from B2 -->
    <connection from="BX" to="XA" fromLane="0" toLane="0" />
    <connection from="BX" to="XC" fromLane="0" toLane="0" />
    <connection from="BX" to="XD" fromLane="0" toLane="0" />
    <!-- from C2 -->
    <connection from="CX" to="XB" fromLane="0" toLane="0" />
    <connection from="CX" to="XA" fromLane="0" toLane="0" />
    <connection from="CX" to="XD" fromLane="0" toLane="0" />
    <!-- from D2 -->
    <connection from="DX" to="XB" fromLane="0" toLane="0" />
    <connection from="DX" to="XC" fromLane="0" toLane="0" />
    <connection from="DX" to="XA" fromLane="0" toLane="0" />
</connections>
