<?xml version="1.0" encoding="UTF-8"?>

<!-- generated on Tue Nov 21 15:50:27 2017 by SUMO netconvert Version 0.30.0
<?xml version="1.0" encoding="UTF-8"?>

<configuration xmlns:xsi="http://www.w3.org/2001/XMLSchema-instance" xsi:noNamespaceSchemaLocation="http://sumo.dlr.de/xsd/netconvertConfiguration.xsd">

    <input>
        <node-files value="Intersection-Control.nod.xml"/>
        <edge-files value="Intersection-Control.edg.xml"/>
        <connection-files value="Intersection-Control.con.xml"/>
    </input>

    <output>
        <output-file value="Intersection-Control.net.xml"/>
    </output>

    <processing>
        <speed-in-kmh value="false"/>
    </processing>

    <report>
        <xml-validation value="never"/>
    </report>

</configuration>
-->

<net version="0.27" xmlns:xsi="http://www.w3.org/2001/XMLSchema-instance" xsi:noNamespaceSchemaLocation="http://sumo.dlr.de/xsd/net_file.xsd">

    <location netOffset="300.00,300.00" convBoundary="0.00,0.00,600.00,600.00" origBoundary="-10000000000.00,-10000000000.00,10000000000.00,10000000000.00" projParameter="!" />

    <edge id=":A_0" function="internal">
        <lane id=":A_0_0" index="0" speed="8.33" length="4.82" shape="0.00,301.65 -1.24,300.83 -1.65,300.00 -1.24,299.18 0.00,298.35" />
    </edge>
    <edge id=":B_0" function="internal">
        <lane id=":B_0_0" index="0" speed="8.33" length="4.82" shape="600.00,298.35 601.24,299.17 601.65,300.00 601.24,300.82 600.00,301.65" />
    </edge>
    <edge id=":C_0" function="internal">
        <lane id=":C_0_0" index="0" speed="8.33" length="4.82" shape="301.65,600.00 300.83,601.24 300.00,601.65 299.18,601.24 298.35,600.00" />
    </edge>
    <edge id=":D_0" function="internal">
        <lane id=":D_0_0" index="0" speed="8.33" length="4.82" shape="298.35,0.00 299.17,-1.24 300.00,-1.65 300.82,-1.24 301.65,0.00" />
    </edge>
    <edge id=":X_0" function="internal">
        <lane id=":X_0_0" index="0" speed="8.33" length="5.00" shape="298.35,304.75 298.16,303.39 297.58,302.42 296.61,301.84 295.25,301.65" />
    </edge>
    <edge id=":X_1" function="internal">
        <lane id=":X_1_0" index="0" speed="8.33" length="9.50" shape="298.35,304.75 298.35,295.25" />
    </edge>
    <edge id=":X_2" function="internal">
        <lane id=":X_2_0" index="0" speed="8.33" length="5.28" shape="298.35,304.75 298.75,301.95 299.95,299.95 300.05,299.89" />
    </edge>
    <edge id=":X_12" function="internal">
        <lane id=":X_12_0" index="0" speed="8.33" length="5.04" shape="300.05,299.89 301.95,298.75 304.75,298.35" />
    </edge>
    <edge id=":X_3" function="internal">
        <lane id=":X_3_0" index="0" speed="8.33" length="5.00" shape="304.75,301.65 303.39,301.84 302.42,302.42 301.84,303.39 301.65,304.75" />
    </edge>
    <edge id=":X_4" function="internal">
        <lane id=":X_4_0" index="0" speed="8.33" length="9.50" shape="304.75,301.65 295.25,301.65" />
    </edge>
    <edge id=":X_5" function="internal">
        <lane id=":X_5_0" index="0" speed="8.33" length="5.28" shape="304.75,301.65 301.95,301.25 299.95,300.05 299.89,299.95" />
    </edge>
    <edge id=":X_13" function="internal">
        <lane id=":X_13_0" index="0" speed="8.33" length="5.04" shape="299.89,299.95 298.75,298.05 298.35,295.25" />
    </edge>
    <edge id=":X_6" function="internal">
        <lane id=":X_6_0" index="0" speed="8.33" length="5.00" shape="301.65,295.25 301.84,296.61 302.42,297.58 303.39,298.16 304.75,298.35" />
    </edge>
    <edge id=":X_7" function="internal">
        <lane id=":X_7_0" index="0" speed="8.33" length="9.50" shape="301.65,295.25 301.65,304.75" />
    </edge>
    <edge id=":X_8" function="internal">
        <lane id=":X_8_0" index="0" speed="8.33" length="5.28" shape="301.65,295.25 301.25,298.05 300.05,300.05 299.95,300.11" />
    </edge>
    <edge id=":X_14" function="internal">
        <lane id=":X_14_0" index="0" speed="8.33" length="5.04" shape="299.95,300.11 298.05,301.25 295.25,301.65" />
    </edge>
    <edge id=":X_9" function="internal">
        <lane id=":X_9_0" index="0" speed="8.33" length="5.00" shape="295.25,298.35 296.61,298.16 297.58,297.58 298.16,296.61 298.35,295.25" />
    </edge>
    <edge id=":X_10" function="internal">
        <lane id=":X_10_0" index="0" speed="8.33" length="9.50" shape="295.25,298.35 304.75,298.35" />
    </edge>
    <edge id=":X_11" function="internal">
        <lane id=":X_11_0" index="0" speed="8.33" length="5.28" shape="295.25,298.35 298.05,298.75 300.05,299.95 300.11,300.05" />
    </edge>
    <edge id=":X_15" function="internal">
        <lane id=":X_15_0" index="0" speed="8.33" length="5.04" shape="300.11,300.05 301.25,301.95 301.65,304.75" />
    </edge>

    <edge id="AX" from="A" to="X" priority="1">
        <lane id="AX_0" index="0" speed="8.33" length="295.25" shape="0.00,298.35 295.25,298.35" />
    </edge>
    <edge id="BX" from="B" to="X" priority="1">
        <lane id="BX_0" index="0" speed="8.33" length="295.25" shape="600.00,301.65 304.75,301.65" />
    </edge>
    <edge id="CX" from="C" to="X" priority="1">
        <lane id="CX_0" index="0" speed="8.33" length="295.25" shape="298.35,600.00 298.35,304.75" />
    </edge>
    <edge id="DX" from="D" to="X" priority="1">
        <lane id="DX_0" index="0" speed="8.33" length="295.25" shape="301.65,0.00 301.65,295.25" />
    </edge>
    <edge id="XA" from="X" to="A" priority="1">
        <lane id="XA_0" index="0" speed="8.33" length="295.25" shape="295.25,301.65 0.00,301.65" />
    </edge>
    <edge id="XB" from="X" to="B" priority="1">
        <lane id="XB_0" index="0" speed="8.33" length="295.25" shape="304.75,298.35 600.00,298.35" />
    </edge>
    <edge id="XC" from="X" to="C" priority="1">
        <lane id="XC_0" index="0" speed="8.33" length="295.25" shape="301.65,304.75 301.65,600.00" />
    </edge>
    <edge id="XD" from="X" to="D" priority="1">
        <lane id="XD_0" index="0" speed="8.33" length="295.25" shape="298.35,295.25 298.35,0.00" />
    </edge>

    <tlLogic id="2" type="static" programID="0" offset="0">
        <phase duration="35" state="GGgrrrGGgrrr" />
        <phase duration="35" state="rrrGGgrrrGGg" />
        <phase duration="35" state="GGgrrrGGgrrr" />
        <phase duration="35" state="rrrGGgrrrGGg" />
    </tlLogic>

    <junction id="A" type="priority" x="0.00" y="300.00" incLanes="XA_0" intLanes=":A_0_0" shape="0.00,299.95 0.00,303.25 0.00,300.05">
        <request index="0" response="0" foes="0" cont="0" />
    </junction>
    <junction id="B" type="priority" x="600.00" y="300.00" incLanes="XB_0" intLanes=":B_0_0" shape="600.00,300.05 600.00,296.75 600.00,299.95">
        <request index="0" response="0" foes="0" cont="0" />
    </junction>
    <junction id="C" type="priority" x="300.00" y="600.00" incLanes="XC_0" intLanes=":C_0_0" shape="299.95,600.00 303.25,600.00 300.05,600.00">
        <request index="0" response="0" foes="0" cont="0" />
    </junction>
    <junction id="D" type="priority" x="300.00" y="0.00" incLanes="XD_0" intLanes=":D_0_0" shape="300.05,0.00 296.75,0.00 299.95,0.00">
        <request index="0" response="0" foes="0" cont="0" />
    </junction>
    <junction id="X" type="traffic_light" x="300.00" y="300.00" incLanes="CX_0 BX_0 DX_0 AX_0" intLanes=":X_0_0 :X_1_0 :X_12_0 :X_3_0 :X_4_0 :X_13_0 :X_6_0 :X_7_0 :X_14_0 :X_9_0 :X_10_0 :X_15_0" shape="296.75,304.75 303.25,304.75 304.75,303.25 304.75,296.75 303.25,295.25 296.75,295.25 295.25,296.75 295.25,303.25">
        <request index="0" response="000000000000" foes="000100010000" cont="0" />
        <request index="1" response="000000000000" foes="111100110000" cont="0" />
        <request index="2" response="000011000000" foes="110011110000" cont="1" />
        <request index="3" response="000010000000" foes="100010000000" cont="0" />
        <request index="4" response="000110000111" foes="100110000111" cont="0" />
        <request index="5" response="011110000110" foes="011110000110" cont="1" />
        <request index="6" response="000000000000" foes="010000000100" cont="0" />
        <request index="7" response="000000000000" foes="110000111100" cont="0" />
        <request index="8" response="000000000011" foes="110000110011" cont="1" />
        <request index="9" response="000000000010" foes="000000100010" cont="0" />
        <request index="10" response="000111000110" foes="000111100110" cont="0" />
        <request index="11" response="000110011110" foes="000110011110" cont="1" />
    </junction>

    <junction id=":X_12_0" type="internal" x="300.05" y="299.89" incLanes=":X_2_0 DX_0" intLanes=":X_4_0 :X_5_0 :X_6_0 :X_7_0 :X_10_0 :X_11_0" />
    <junction id=":X_13_0" type="internal" x="299.89" y="299.95" incLanes=":X_5_0 AX_0" intLanes=":X_1_0 :X_2_0 :X_7_0 :X_8_0 :X_9_0 :X_10_0" />
    <junction id=":X_14_0" type="internal" x="299.95" y="300.11" incLanes=":X_8_0 CX_0" intLanes=":X_0_0 :X_1_0 :X_4_0 :X_5_0 :X_10_0 :X_11_0" />
    <junction id=":X_15_0" type="internal" x="300.11" y="300.05" incLanes=":X_11_0 BX_0" intLanes=":X_1_0 :X_2_0 :X_3_0 :X_4_0 :X_7_0 :X_8_0" />

    <connection from="AX" to="XD" fromLane="0" toLane="0" via=":X_9_0" tl="2" linkIndex="9" dir="r" state="o" />
    <connection from="AX" to="XB" fromLane="0" toLane="0" via=":X_10_0" tl="2" linkIndex="10" dir="s" state="o" />
    <connection from="AX" to="XC" fromLane="0" toLane="0" via=":X_11_0" tl="2" linkIndex="11" dir="l" state="o" />
    <connection from="BX" to="XC" fromLane="0" toLane="0" via=":X_3_0" tl="2" linkIndex="3" dir="r" state="o" />
    <connection from="BX" to="XA" fromLane="0" toLane="0" via=":X_4_0" tl="2" linkIndex="4" dir="s" state="o" />
    <connection from="BX" to="XD" fromLane="0" toLane="0" via=":X_5_0" tl="2" linkIndex="5" dir="l" state="o" />
    <connection from="CX" to="XA" fromLane="0" toLane="0" via=":X_0_0" tl="2" linkIndex="0" dir="r" state="o" />
    <connection from="CX" to="XD" fromLane="0" toLane="0" via=":X_1_0" tl="2" linkIndex="1" dir="s" state="o" />
    <connection from="CX" to="XB" fromLane="0" toLane="0" via=":X_2_0" tl="2" linkIndex="2" dir="l" state="o" />
    <connection from="DX" to="XB" fromLane="0" toLane="0" via=":X_6_0" tl="2" linkIndex="6" dir="r" state="o" />
    <connection from="DX" to="XC" fromLane="0" toLane="0" via=":X_7_0" tl="2" linkIndex="7" dir="s" state="o" />
    <connection from="DX" to="XA" fromLane="0" toLane="0" via=":X_8_0" tl="2" linkIndex="8" dir="l" state="o" />
    <connection from="XA" to="AX" fromLane="0" toLane="0" via=":A_0_0" dir="t" state="M" />
    <connection from="XB" to="BX" fromLane="0" toLane="0" via=":B_0_0" dir="t" state="M" />
    <connection from="XC" to="CX" fromLane="0" toLane="0" via=":C_0_0" dir="t" state="M" />
    <connection from="XD" to="DX" fromLane="0" toLane="0" via=":D_0_0" dir="t" state="M" />

    <connection from=":A_0" to="AX" fromLane="0" toLane="0" dir="s" state="M" />
    <connection from=":B_0" to="BX" fromLane="0" toLane="0" dir="s" state="M" />
    <connection from=":C_0" to="CX" fromLane="0" toLane="0" dir="s" state="M" />
    <connection from=":D_0" to="DX" fromLane="0" toLane="0" dir="s" state="M" />
    <connection from=":X_0" to="XA" fromLane="0" toLane="0" dir="s" state="M" />
    <connection from=":X_1" to="XD" fromLane="0" toLane="0" dir="s" state="M" />
    <connection from=":X_2" to="XB" fromLane="0" toLane="0" via=":X_12_0" dir="s" state="m" />
    <connection from=":X_12" to="XB" fromLane="0" toLane="0" dir="s" state="M" />
    <connection from=":X_3" to="XC" fromLane="0" toLane="0" dir="s" state="M" />
    <connection from=":X_4" to="XA" fromLane="0" toLane="0" dir="s" state="M" />
    <connection from=":X_5" to="XD" fromLane="0" toLane="0" via=":X_13_0" dir="s" state="m" />
    <connection from=":X_13" to="XD" fromLane="0" toLane="0" dir="s" state="M" />
    <connection from=":X_6" to="XB" fromLane="0" toLane="0" dir="s" state="M" />
    <connection from=":X_7" to="XC" fromLane="0" toLane="0" dir="s" state="M" />
    <connection from=":X_8" to="XA" fromLane="0" toLane="0" via=":X_14_0" dir="s" state="m" />
    <connection from=":X_14" to="XA" fromLane="0" toLane="0" dir="s" state="M" />
    <connection from=":X_9" to="XD" fromLane="0" toLane="0" dir="s" state="M" />
    <connection from=":X_10" to="XB" fromLane="0" toLane="0" dir="s" state="M" />
    <connection from=":X_11" to="XC" fromLane="0" toLane="0" via=":X_15_0" dir="s" state="m" />
    <connection from=":X_15" to="XC" fromLane="0" toLane="0" dir="s" state="M" />

</net>
