<?xml version="1.0" encoding="UTF-8"?>

<!-- generated on 10/30/17 10:09:04 by SUMO netconvert Version 0.31.0
<?xml version="1.0" encoding="UTF-8"?>

<configuration xmlns:xsi="http://www.w3.org/2001/XMLSchema-instance" xsi:noNamespaceSchemaLocation="http://sumo.dlr.de/xsd/netconvertConfiguration.xsd">

    <input>
        <node-files value="C:\Users\Niels\Documents\HvA\Jaar_3\HR\Sumo\Intersection-Control\Intersection-Control.nod.xml"/>
        <edge-files value="C:\Users\Niels\Documents\HvA\Jaar_3\HR\Sumo\Intersection-Control\Intersection-Control.edg.xml"/>
        <connection-files value="C:\Users\Niels\Documents\HvA\Jaar_3\HR\Sumo\Intersection-Control\Intersection-Control.con.xml"/>
    </input>

    <output>
        <output-file value="C:\Users\Niels\Documents\HvA\Jaar_3\HR\Sumo\Intersection-Control\Intersection-Control.net.xml"/>
    </output>

    <processing>
        <speed-in-kmh value="false"/>
    </processing>

    <report>
        <xml-validation value="never"/>
    </report>

</configuration>
-->

<net version="0.27" xmlns:xsi="http://www.w3.org/2001/XMLSchema-instance" xsi:noNamespaceSchemaLocation="http://sumo.dlr.de/xsd/net_file.xsd">

    <location netOffset="300.00,300.00" convBoundary="0.00,0.00,600.00,600.00" origBoundary="-10000000000.00,-10000000000.00,10000000000.00,10000000000.00" projParameter="!"/>

    <edge id=":10_0" function="internal">
        <lane id=":10_0_0" index="0" speed="8.33" length="5.00" shape="304.95,291.95 305.14,293.31 305.73,294.27 306.69,294.86 308.05,295.05"/>
    </edge>
    <edge id=":10_1" function="internal">
        <lane id=":10_1_0" index="0" speed="8.33" length="7.85" shape="304.95,291.95 305.14,294.75 305.73,296.75 306.69,297.95 308.05,298.35"/>
    </edge>
    <edge id=":10_2" function="internal">
        <lane id=":10_2_0" index="0" speed="8.33" length="9.50" shape="304.95,291.95 304.95,301.45"/>
        <lane id=":10_2_1" index="1" speed="8.33" length="9.50" shape="301.65,291.95 301.65,301.45"/>
    </edge>
    <edge id=":10_4" function="internal">
        <lane id=":10_4_0" index="0" speed="8.33" length="9.50" shape="298.55,295.05 308.05,295.05"/>
        <lane id=":10_4_1" index="1" speed="8.33" length="9.50" shape="298.55,298.35 308.05,298.35"/>
    </edge>
    <edge id=":10_6" function="internal">
        <lane id=":10_6_0" index="0" speed="8.33" length="7.85" shape="298.55,298.35 301.35,298.54 303.35,299.13 304.55,300.09 304.95,301.45"/>
    </edge>
    <edge id=":10_7" function="internal">
        <lane id=":10_7_0" index="0" speed="8.33" length="5.00" shape="298.55,298.35 299.91,298.54 300.88,299.13 301.46,300.09 301.65,301.45"/>
    </edge>

    <edge id="A2" from="1" to="10" priority="1">
        <lane id="A2_0" index="0" speed="8.33" length="298.55" shape="-0.00,295.05 298.55,295.05"/>
        <lane id="A2_1" index="1" speed="8.33" length="298.55" shape="-0.00,298.35 298.55,298.35"/>
    </edge>
    <edge id="B1" from="10" to="2" priority="1">
        <lane id="B1_0" index="0" speed="8.33" length="291.95" shape="308.05,295.05 600.00,295.05"/>
        <lane id="B1_1" index="1" speed="8.33" length="291.95" shape="308.05,298.35 600.00,298.35"/>
    </edge>
    <edge id="C1" from="10" to="3" priority="1">
        <lane id="C1_0" index="0" speed="8.33" length="298.55" shape="304.95,301.45 304.95,600.00"/>
        <lane id="C1_1" index="1" speed="8.33" length="298.55" shape="301.65,301.45 301.65,600.00"/>
    </edge>
    <edge id="D2" from="4" to="10" priority="1">
        <lane id="D2_0" index="0" speed="8.33" length="291.95" shape="304.95,-0.00 304.95,291.95"/>
        <lane id="D2_1" index="1" speed="8.33" length="291.95" shape="301.65,-0.00 301.65,291.95"/>
    </edge>

    <tlLogic id="2" type="static" programID="0" offset="0">
        <phase duration="42" state="GGGGrrrr"/>
        <phase duration="3" state="yyyyrrrr"/>
        <phase duration="42" state="rrrrGGGG"/>
        <phase duration="3" state="rrrryyyy"/>
    </tlLogic>

    <junction id="1" type="dead_end" x="0.00" y="300.00" incLanes="" intLanes="" shape="-0.00,299.95 -0.00,293.45"/>
    <junction id="10" type="traffic_light" x="300.00" y="300.00" incLanes="D2_0 D2_1 A2_0 A2_1" intLanes=":10_0_0 :10_1_0 :10_2_0 :10_2_1 :10_4_0 :10_4_1 :10_6_0 :10_7_0" shape="300.05,301.45 306.55,301.45 308.05,299.95 308.05,293.45 306.55,291.95 300.05,291.95 298.55,293.45 298.55,299.95">
        <request index="0" response="00000000" foes="00110000" cont="0"/>
        <request index="1" response="00000000" foes="00110000" cont="0"/>
        <request index="2" response="00000000" foes="11110000" cont="0"/>
        <request index="3" response="00000000" foes="11110000" cont="0"/>
        <request index="4" response="00001111" foes="00001111" cont="0"/>
        <request index="5" response="00001111" foes="00001111" cont="0"/>
        <request index="6" response="00001100" foes="00001100" cont="0"/>
        <request index="7" response="00001100" foes="00001100" cont="0"/>
    </junction>
    <junction id="2" type="dead_end" x="600.00" y="300.00" incLanes="B1_0 B1_1" intLanes="" shape="600.00,293.45 600.00,299.95"/>
    <junction id="3" type="dead_end" x="300.00" y="600.00" incLanes="C1_0 C1_1" intLanes="" shape="306.55,600.00 300.05,600.00"/>
    <junction id="4" type="dead_end" x="300.00" y="0.00" incLanes="" intLanes="" shape="300.05,-0.00 306.55,-0.00"/>

    <connection from="A2" to="B1" fromLane="0" toLane="0" via=":10_4_0" tl="2" linkIndex="4" dir="s" state="o"/>
    <connection from="A2" to="B1" fromLane="1" toLane="1" via=":10_4_1" tl="2" linkIndex="5" dir="s" state="o"/>
    <connection from="A2" to="C1" fromLane="1" toLane="0" via=":10_6_0" tl="2" linkIndex="6" dir="l" state="o"/>
    <connection from="A2" to="C1" fromLane="1" toLane="1" via=":10_7_0" tl="2" linkIndex="7" dir="l" state="o"/>
    <connection from="D2" to="B1" fromLane="0" toLane="0" via=":10_0_0" tl="2" linkIndex="0" dir="r" state="o"/>
    <connection from="D2" to="B1" fromLane="0" toLane="1" via=":10_1_0" tl="2" linkIndex="1" dir="r" state="o"/>
    <connection from="D2" to="C1" fromLane="0" toLane="0" via=":10_2_0" tl="2" linkIndex="2" dir="s" state="o"/>
    <connection from="D2" to="C1" fromLane="1" toLane="1" via=":10_2_1" tl="2" linkIndex="3" dir="s" state="o"/>

    <connection from=":10_0" to="B1" fromLane="0" toLane="0" dir="s" state="M"/>
    <connection from=":10_1" to="B1" fromLane="0" toLane="1" dir="s" state="M"/>
    <connection from=":10_2" to="C1" fromLane="0" toLane="0" dir="s" state="M"/>
    <connection from=":10_2" to="C1" fromLane="1" toLane="1" dir="s" state="M"/>
    <connection from=":10_4" to="B1" fromLane="0" toLane="0" dir="s" state="M"/>
    <connection from=":10_4" to="B1" fromLane="1" toLane="1" dir="s" state="M"/>
    <connection from=":10_6" to="C1" fromLane="0" toLane="0" dir="s" state="M"/>
    <connection from=":10_7" to="C1" fromLane="0" toLane="1" dir="s" state="M"/>

</net>
