<?xml version="1.0" encoding="UTF-8"?>
<edges version="0.27" xmlns:xsi="http://www.w3.org/2001/XMLSchema-instance" xsi:noNamespaceSchemaLocation="http://sumo.dlr.de/xsd/edges_file.xsd">
    <edge id="AX" from="A" to="X" priority="1" numLanes="1" speed="8.33" />
    <edge id="XA" from="X" to="A" priority="1" numLanes="1" speed="8.33" />
    <edge id="BX" from="B" to="X" priority="1" numLanes="1" speed="8.33" />
    <edge id="XB" from="X" to="B" priority="1" numLanes="1" speed="8.33" />
    <edge id="CX" from="C" to="X" priority="1" numLanes="1" speed="8.33" />
    <edge id="XC" from="X" to="C" priority="1" numLanes="1" speed="8.33" />
    <edge id="DX" from="D" to="X" priority="1" numLanes="1" speed="8.33" />
    <edge id="XD" from="X" to="D" priority="1" numLanes="1" speed="8.33" />
</edges>
