<routes>
<flow departPos="base" from="A2" id="flow_0" probability="0.01" to="A1" type="CAR" /><flow departPos="base" from="A2" id="flow_1" probability="0.01" to="B1" type="CAR" /><flow departPos="base" from="A2" id="flow_2" probability="0.01" to="C1" type="CAR" /><flow departPos="base" from="A2" id="flow_3" probability="0.01" to="D1" type="CAR" /><flow departPos="base" from="B2" id="flow_4" probability="0.01" to="A1" type="CAR" /><flow departPos="base" from="B2" id="flow_5" probability="0.01" to="B1" type="CAR" /><flow departPos="base" from="B2" id="flow_6" probability="0.01" to="C1" type="CAR" /><flow departPos="base" from="B2" id="flow_7" probability="0.01" to="D1" type="CAR" /><flow departPos="base" from="C2" id="flow_8" probability="0.01" to="A1" type="CAR" /><flow departPos="base" from="C2" id="flow_9" probability="0.01" to="B1" type="CAR" /><flow departPos="base" from="C2" id="flow_10" probability="0.01" to="C1" type="CAR" /><flow departPos="base" from="C2" id="flow_11" probability="0.01" to="D1" type="CAR" /><flow departPos="base" from="D2" id="flow_12" probability="0.01" to="A1" type="CAR" /><flow departPos="base" from="D2" id="flow_13" probability="0.01" to="B1" type="CAR" /><flow departPos="base" from="D2" id="flow_14" probability="0.01" to="C1" type="CAR" /><flow departPos="base" from="D2" id="flow_15" probability="0.01" to="D1" type="CAR" /></routes>