<routes>
<flow departPos="base" from="294085176#0" id="flow_0" probability="0.01" to="238866887" type="CAR" /><flow departPos="base" from="294085176#0" id="flow_1" probability="0.01" to="449991627#9" type="CAR" /><flow departPos="base" from="294085176#0" id="flow_2" probability="0.01" to="4746923#7" type="CAR" /><flow departPos="base" from="294085176#0" id="flow_3" probability="0.01" to="86301093#8" type="CAR" /><flow departPos="base" from="4746923#0" id="flow_4" probability="0.01" to="238866887" type="CAR" /><flow departPos="base" from="4746923#0" id="flow_5" probability="0.01" to="449991627#9" type="CAR" /><flow departPos="base" from="4746923#0" id="flow_6" probability="0.01" to="4746923#7" type="CAR" /><flow departPos="base" from="4746923#0" id="flow_7" probability="0.01" to="86301093#8" type="CAR" /><flow departPos="base" from="4751998#0" id="flow_8" probability="0.01" to="238866887" type="CAR" /><flow departPos="base" from="4751998#0" id="flow_9" probability="0.01" to="449991627#9" type="CAR" /><flow departPos="base" from="4751998#0" id="flow_10" probability="0.01" to="4746923#7" type="CAR" /><flow departPos="base" from="4751998#0" id="flow_11" probability="0.01" to="86301093#8" type="CAR" /><flow departPos="base" from="526213093#0" id="flow_12" probability="0.01" to="238866887" type="CAR" /><flow departPos="base" from="526213093#0" id="flow_13" probability="0.01" to="449991627#9" type="CAR" /><flow departPos="base" from="526213093#0" id="flow_14" probability="0.01" to="4746923#7" type="CAR" /><flow departPos="base" from="526213093#0" id="flow_15" probability="0.01" to="86301093#8" type="CAR" /><flow departPos="base" from="86301093#0" id="flow_16" probability="0.01" to="238866887" type="CAR" /><flow departPos="base" from="86301093#0" id="flow_17" probability="0.01" to="449991627#9" type="CAR" /><flow departPos="base" from="86301093#0" id="flow_18" probability="0.01" to="4746923#7" type="CAR" /><flow departPos="base" from="86301093#0" id="flow_19" probability="0.01" to="86301093#8" type="CAR" /></routes>