<routes>
<flow departPos="base" from="AB" id="flow_0" probability="0.05" to="BD" type="CAR" /><flow departPos="base" from="CB" id="flow_1" probability="0.05" to="BD" type="CAR" /></routes>