<routes>
<flow departPos="base" from="AX" id="flow_0" probability="0.015" to="XA" type="CAR" /><flow departPos="base" from="AX" id="flow_1" probability="0.015" to="XB" type="CAR" /><flow departPos="base" from="AX" id="flow_2" probability="0.015" to="XC" type="CAR" /><flow departPos="base" from="AX" id="flow_3" probability="0.015" to="XD" type="CAR" /><flow departPos="base" from="BX" id="flow_4" probability="0.015" to="XA" type="CAR" /><flow departPos="base" from="BX" id="flow_5" probability="0.015" to="XB" type="CAR" /><flow departPos="base" from="BX" id="flow_6" probability="0.015" to="XC" type="CAR" /><flow departPos="base" from="BX" id="flow_7" probability="0.015" to="XD" type="CAR" /><flow departPos="base" from="CX" id="flow_8" probability="0.015" to="XA" type="CAR" /><flow departPos="base" from="CX" id="flow_9" probability="0.015" to="XB" type="CAR" /><flow departPos="base" from="CX" id="flow_10" probability="0.015" to="XC" type="CAR" /><flow departPos="base" from="CX" id="flow_11" probability="0.015" to="XD" type="CAR" /><flow departPos="base" from="DX" id="flow_12" probability="0.015" to="XA" type="CAR" /><flow departPos="base" from="DX" id="flow_13" probability="0.015" to="XB" type="CAR" /><flow departPos="base" from="DX" id="flow_14" probability="0.015" to="XC" type="CAR" /><flow departPos="base" from="DX" id="flow_15" probability="0.015" to="XD" type="CAR" /></routes>