<?xml version="1.0" encoding="UTF-8"?>

<!-- generated on 10/25/17 12:24:56 by SUMO netconvert Version 0.31.0
<?xml version="1.0" encoding="UTF-8"?>

<configuration xmlns:xsi="http://www.w3.org/2001/XMLSchema-instance" xsi:noNamespaceSchemaLocation="http://sumo.dlr.de/xsd/netconvertConfiguration.xsd">

    <input>
        <node-files value="C:\Users\Niels\Documents\HvA\Jaar_3\HR\Sumo\Intersection-Control\grid\grid.nod.xml"/>
        <edge-files value="C:\Users\Niels\Documents\HvA\Jaar_3\HR\Sumo\Intersection-Control\grid\grid.edg.xml"/>
        <connection-files value="C:\Users\Niels\Documents\HvA\Jaar_3\HR\Sumo\Intersection-Control\grid\grid.con.xml"/>
    </input>

    <output>
        <output-file value="C:\Users\Niels\Documents\HvA\Jaar_3\HR\Sumo\Intersection-Control\grid\grid.net.xml"/>
    </output>

    <processing>
        <speed-in-kmh value="false"/>
    </processing>

    <report>
        <xml-validation value="never"/>
    </report>

</configuration>
-->

<net version="0.27" xmlns:xsi="http://www.w3.org/2001/XMLSchema-instance" xsi:noNamespaceSchemaLocation="http://sumo.dlr.de/xsd/net_file.xsd">

    <location netOffset="450.00,450.00" convBoundary="0.00,0.00,900.00,900.00" origBoundary="-10000000000.00,-10000000000.00,10000000000.00,10000000000.00" projParameter="!"/>

    <edge id=":D_0" function="internal">
        <lane id=":D_0_0" index="0" speed="8.33" length="5.00" shape="304.95,585.35 305.14,586.71 305.73,587.67 306.69,588.26 308.05,588.45"/>
    </edge>
    <edge id=":D_1" function="internal">
        <lane id=":D_1_0" index="0" speed="8.33" length="16.10" shape="304.95,585.35 304.95,601.45"/>
    </edge>
    <edge id=":D_2" function="internal">
        <lane id=":D_2_0" index="0" speed="8.33" length="5.28" shape="301.65,585.35 302.05,588.15 303.25,590.15 303.35,590.21"/>
    </edge>
    <edge id=":D_3" function="internal">
        <lane id=":D_3_0" index="0" speed="8.33" length="16.10" shape="301.65,585.35 301.65,601.45"/>
    </edge>
    <edge id=":D_10" function="internal">
        <lane id=":D_10_0" index="0" speed="8.33" length="5.04" shape="303.35,590.21 305.25,591.35 308.05,591.75"/>
    </edge>
    <edge id=":D_4" function="internal">
        <lane id=":D_4_0" index="0" speed="8.33" length="9.50" shape="298.55,588.45 308.05,588.45"/>
        <lane id=":D_4_1" index="1" speed="8.33" length="9.50" shape="298.55,591.75 308.05,591.75"/>
        <lane id=":D_4_2" index="2" speed="8.33" length="9.50" shape="298.55,595.05 308.05,595.05"/>
    </edge>
    <edge id=":D_7" function="internal">
        <lane id=":D_7_0" index="0" speed="8.33" length="1.52" shape="298.55,595.05 300.05,595.26"/>
    </edge>
    <edge id=":D_8" function="internal">
        <lane id=":D_8_0" index="0" speed="8.33" length="9.50" shape="298.55,598.35 308.05,598.35"/>
    </edge>
    <edge id=":D_9" function="internal">
        <lane id=":D_9_0" index="0" speed="8.33" length="1.54" shape="298.55,598.35 299.91,598.54 300.05,598.63"/>
    </edge>
    <edge id=":D_11" function="internal">
        <lane id=":D_11_0" index="0" speed="8.33" length="8.81" shape="300.05,595.26 301.35,595.45 303.35,596.65 304.55,598.65 304.95,601.45"/>
    </edge>
    <edge id=":D_12" function="internal">
        <lane id=":D_12_0" index="0" speed="8.33" length="3.46" shape="300.05,598.63 300.88,599.13 301.46,600.09 301.65,601.45"/>
    </edge>
    <edge id=":E_0" function="internal">
        <lane id=":E_0_0" index="0" speed="8.33" length="16.10" shape="595.05,601.45 595.05,585.35"/>
    </edge>
    <edge id=":E_1" function="internal">
        <lane id=":E_1_0" index="0" speed="8.33" length="1.52" shape="595.05,601.45 595.26,599.95"/>
    </edge>
    <edge id=":E_2" function="internal">
        <lane id=":E_2_0" index="0" speed="8.33" length="16.10" shape="598.35,601.45 598.35,585.35"/>
    </edge>
    <edge id=":E_3" function="internal">
        <lane id=":E_3_0" index="0" speed="8.33" length="1.54" shape="598.35,601.45 598.54,600.09 598.63,599.95"/>
    </edge>
    <edge id=":E_10" function="internal">
        <lane id=":E_10_0" index="0" speed="8.33" length="8.81" shape="595.26,599.95 595.45,598.65 596.65,596.65 598.65,595.45 601.45,595.05"/>
    </edge>
    <edge id=":E_11" function="internal">
        <lane id=":E_11_0" index="0" speed="8.33" length="3.46" shape="598.63,599.95 599.13,599.13 600.09,598.54 601.45,598.35"/>
    </edge>
    <edge id=":E_4" function="internal">
        <lane id=":E_4_0" index="0" speed="8.33" length="5.00" shape="591.95,588.45 593.31,588.26 594.27,587.68 594.86,586.71 595.05,585.35"/>
    </edge>
    <edge id=":E_5" function="internal">
        <lane id=":E_5_0" index="0" speed="8.33" length="9.50" shape="591.95,588.45 601.45,588.45"/>
    </edge>
    <edge id=":E_6" function="internal">
        <lane id=":E_6_0" index="0" speed="8.33" length="5.28" shape="591.95,591.75 594.75,591.35 596.75,590.15 596.81,590.05"/>
    </edge>
    <edge id=":E_7" function="internal">
        <lane id=":E_7_0" index="0" speed="8.33" length="9.50" shape="591.95,591.75 601.45,591.75"/>
        <lane id=":E_7_1" index="1" speed="8.33" length="9.50" shape="591.95,595.05 601.45,595.05"/>
        <lane id=":E_7_2" index="2" speed="8.33" length="9.50" shape="591.95,598.35 601.45,598.35"/>
    </edge>
    <edge id=":E_12" function="internal">
        <lane id=":E_12_0" index="0" speed="8.33" length="5.04" shape="596.81,590.05 597.95,588.15 598.35,585.35"/>
    </edge>
    <edge id=":H_0" function="internal">
        <lane id=":H_0_0" index="0" speed="8.33" length="5.00" shape="308.05,308.25 306.69,308.44 305.73,309.02 305.14,309.99 304.95,311.35"/>
    </edge>
    <edge id=":H_1" function="internal">
        <lane id=":H_1_0" index="0" speed="8.33" length="7.85" shape="308.05,308.25 305.25,308.44 303.25,309.02 302.05,309.99 301.65,311.35"/>
    </edge>
    <edge id=":H_2" function="internal">
        <lane id=":H_2_0" index="0" speed="8.33" length="9.50" shape="308.05,308.25 298.55,308.25"/>
        <lane id=":H_2_1" index="1" speed="8.33" length="9.50" shape="308.05,304.95 298.55,304.95"/>
        <lane id=":H_2_2" index="2" speed="8.33" length="9.50" shape="308.05,301.65 298.55,301.65"/>
    </edge>
    <edge id=":H_5" function="internal">
        <lane id=":H_5_0" index="0" speed="8.33" length="12.80" shape="304.95,298.55 304.95,311.35"/>
    </edge>
    <edge id=":H_6" function="internal">
        <lane id=":H_6_0" index="0" speed="8.33" length="1.52" shape="304.95,298.55 304.74,300.05"/>
    </edge>
    <edge id=":H_7" function="internal">
        <lane id=":H_7_0" index="0" speed="8.33" length="12.80" shape="301.65,298.55 301.65,311.35"/>
    </edge>
    <edge id=":H_8" function="internal">
        <lane id=":H_8_0" index="0" speed="8.33" length="1.54" shape="301.65,298.55 301.46,299.91 301.37,300.05"/>
    </edge>
    <edge id=":H_9" function="internal">
        <lane id=":H_9_0" index="0" speed="8.33" length="8.81" shape="304.74,300.05 304.55,301.35 303.35,303.35 301.35,304.55 298.55,304.95"/>
    </edge>
    <edge id=":H_10" function="internal">
        <lane id=":H_10_0" index="0" speed="8.33" length="3.46" shape="301.37,300.05 300.88,300.88 299.91,301.46 298.55,301.65"/>
    </edge>
    <edge id=":I_0" function="internal">
        <lane id=":I_0_0" index="0" speed="8.33" length="5.00" shape="595.05,311.35 594.86,309.99 594.27,309.02 593.31,308.44 591.95,308.25"/>
    </edge>
    <edge id=":I_1" function="internal">
        <lane id=":I_1_0" index="0" speed="8.33" length="12.80" shape="595.05,311.35 595.05,298.55"/>
    </edge>
    <edge id=":I_2" function="internal">
        <lane id=":I_2_0" index="0" speed="8.33" length="5.28" shape="598.35,311.35 597.95,308.55 596.75,306.55 596.65,306.49"/>
    </edge>
    <edge id=":I_3" function="internal">
        <lane id=":I_3_0" index="0" speed="8.33" length="12.80" shape="598.35,311.35 598.35,298.55"/>
    </edge>
    <edge id=":I_9" function="internal">
        <lane id=":I_9_0" index="0" speed="8.33" length="5.04" shape="596.65,306.49 594.75,305.35 591.95,304.95"/>
    </edge>
    <edge id=":I_4" function="internal">
        <lane id=":I_4_0" index="0" speed="8.33" length="9.50" shape="601.45,308.25 591.95,308.25"/>
        <lane id=":I_4_1" index="1" speed="8.33" length="9.50" shape="601.45,304.95 591.95,304.95"/>
    </edge>
    <edge id=":I_6" function="internal">
        <lane id=":I_6_0" index="0" speed="8.33" length="1.52" shape="601.45,304.95 599.95,304.74"/>
    </edge>
    <edge id=":I_7" function="internal">
        <lane id=":I_7_0" index="0" speed="8.33" length="9.50" shape="601.45,301.65 591.95,301.65"/>
    </edge>
    <edge id=":I_8" function="internal">
        <lane id=":I_8_0" index="0" speed="8.33" length="1.54" shape="601.45,301.65 600.09,301.46 599.95,301.37"/>
    </edge>
    <edge id=":I_10" function="internal">
        <lane id=":I_10_0" index="0" speed="8.33" length="8.81" shape="599.95,304.74 598.65,304.55 596.65,303.35 595.45,301.35 595.05,298.55"/>
    </edge>
    <edge id=":I_11" function="internal">
        <lane id=":I_11_0" index="0" speed="8.33" length="3.46" shape="599.95,301.37 599.13,300.88 598.54,299.91 598.35,298.55"/>
    </edge>

    <edge id="BE" from="B" to="E" priority="1">
        <lane id="BE_0" index="0" speed="8.33" length="298.55" shape="595.05,900.00 595.05,601.45"/>
        <lane id="BE_1" index="1" speed="8.33" length="298.55" shape="598.35,900.00 598.35,601.45"/>
    </edge>
    <edge id="CD" from="C" to="D" priority="1">
        <lane id="CD_0" index="0" speed="8.33" length="298.55" shape="-0.00,588.45 298.55,588.45"/>
        <lane id="CD_1" index="1" speed="8.33" length="298.55" shape="-0.00,591.75 298.55,591.75"/>
        <lane id="CD_2" index="2" speed="8.33" length="298.55" shape="-0.00,595.05 298.55,595.05"/>
        <lane id="CD_3" index="3" speed="8.33" length="298.55" shape="-0.00,598.35 298.55,598.35"/>
    </edge>
    <edge id="DA" from="D" to="A" priority="1">
        <lane id="DA_0" index="0" speed="8.33" length="298.55" shape="304.95,601.45 304.95,900.00"/>
        <lane id="DA_1" index="1" speed="8.33" length="298.55" shape="301.65,601.45 301.65,900.00"/>
    </edge>
    <edge id="DE" from="D" to="E" priority="1">
        <lane id="DE_0" index="0" speed="8.33" length="283.90" shape="308.05,588.45 591.95,588.45"/>
        <lane id="DE_1" index="1" speed="8.33" length="283.90" shape="308.05,591.75 591.95,591.75"/>
        <lane id="DE_2" index="2" speed="8.33" length="283.90" shape="308.05,595.05 591.95,595.05"/>
        <lane id="DE_3" index="3" speed="8.33" length="283.90" shape="308.05,598.35 591.95,598.35"/>
    </edge>
    <edge id="EF" from="E" to="F" priority="1">
        <lane id="EF_0" index="0" speed="8.33" length="298.55" shape="601.45,588.45 900.00,588.45"/>
        <lane id="EF_1" index="1" speed="8.33" length="298.55" shape="601.45,591.75 900.00,591.75"/>
        <lane id="EF_2" index="2" speed="8.33" length="298.55" shape="601.45,595.05 900.00,595.05"/>
        <lane id="EF_3" index="3" speed="8.33" length="298.55" shape="601.45,598.35 900.00,598.35"/>
    </edge>
    <edge id="EI" from="E" to="I" priority="1">
        <lane id="EI_0" index="0" speed="8.33" length="274.00" shape="595.05,585.35 595.05,311.35"/>
        <lane id="EI_1" index="1" speed="8.33" length="274.00" shape="598.35,585.35 598.35,311.35"/>
    </edge>
    <edge id="HD" from="H" to="D" priority="1">
        <lane id="HD_0" index="0" speed="8.33" length="274.00" shape="304.95,311.35 304.95,585.35"/>
        <lane id="HD_1" index="1" speed="8.33" length="274.00" shape="301.65,311.35 301.65,585.35"/>
    </edge>
    <edge id="HG" from="H" to="G" priority="1">
        <lane id="HG_0" index="0" speed="8.33" length="298.55" shape="298.55,308.25 -0.00,308.25"/>
        <lane id="HG_1" index="1" speed="8.33" length="298.55" shape="298.55,304.95 -0.00,304.95"/>
        <lane id="HG_2" index="2" speed="8.33" length="298.55" shape="298.55,301.65 -0.00,301.65"/>
    </edge>
    <edge id="IH" from="I" to="H" priority="1">
        <lane id="IH_0" index="0" speed="8.33" length="283.90" shape="591.95,308.25 308.05,308.25"/>
        <lane id="IH_1" index="1" speed="8.33" length="283.90" shape="591.95,304.95 308.05,304.95"/>
        <lane id="IH_2" index="2" speed="8.33" length="283.90" shape="591.95,301.65 308.05,301.65"/>
    </edge>
    <edge id="IL" from="I" to="L" priority="1">
        <lane id="IL_0" index="0" speed="8.33" length="298.55" shape="595.05,298.55 595.05,-0.00"/>
        <lane id="IL_1" index="1" speed="8.33" length="298.55" shape="598.35,298.55 598.35,-0.00"/>
    </edge>
    <edge id="JI" from="J" to="I" priority="1">
        <lane id="JI_0" index="0" speed="8.33" length="298.55" shape="900.00,308.25 601.45,308.25"/>
        <lane id="JI_1" index="1" speed="8.33" length="298.55" shape="900.00,304.95 601.45,304.95"/>
        <lane id="JI_2" index="2" speed="8.33" length="298.55" shape="900.00,301.65 601.45,301.65"/>
    </edge>
    <edge id="KH" from="K" to="H" priority="1">
        <lane id="KH_0" index="0" speed="8.33" length="298.55" shape="304.95,-0.00 304.95,298.55"/>
        <lane id="KH_1" index="1" speed="8.33" length="298.55" shape="301.65,-0.00 301.65,298.55"/>
    </edge>

    <tlLogic id="2" type="static" programID="0" offset="0">
        <phase duration="33" state="ggggGGGgGGrrrrGGgGGGGGGGGrrrrggggGGgGG"/>
        <phase duration="3" state="ggygyyyyyyrrrryyyyyyyyyyyrrrrggygyyyyy"/>
        <phase duration="6" state="GGgGrrrrrrrrrrGGgGGGGGGGGrrrrGGgGrrrrr"/>
        <phase duration="3" state="yyyyrrrrrrrrrryyyyyyyyyyyrrrryyyyrrrrr"/>
        <phase duration="33" state="GGgGrrrrrrggggGGgGGGGGGGGggggGGgGrrrrr"/>
        <phase duration="3" state="yyyyrrrrrrgyggyyyyyyyyyyygyggyyyyrrrrr"/>
        <phase duration="6" state="GGgGrrrrrrgrggGGgGGGGGGGGgrggGGgGrrrrr"/>
        <phase duration="3" state="yyyyrrrrrryryyyyyyyyyyyyyyryyyyyyrrrrr"/>
    </tlLogic>

    <junction id="A" type="dead_end" x="300.00" y="900.00" incLanes="DA_0 DA_1" intLanes="" shape="306.55,900.00 300.05,900.00"/>
    <junction id="B" type="dead_end" x="600.00" y="900.00" incLanes="" intLanes="" shape="599.95,900.00 593.45,900.00"/>
    <junction id="C" type="dead_end" x="0.00" y="600.00" incLanes="" intLanes="" shape="-0.00,599.95 -0.00,586.85"/>
    <junction id="D" type="traffic_light" x="300.00" y="600.00" incLanes="HD_0 HD_1 CD_0 CD_1 CD_2 CD_3" intLanes=":D_0_0 :D_1_0 :D_10_0 :D_3_0 :D_4_0 :D_4_1 :D_4_2 :D_11_0 :D_8_0 :D_12_0" shape="300.05,601.45 306.55,601.45 308.05,599.95 308.05,586.85 306.55,585.35 300.05,585.35 298.55,586.85 298.55,599.95">
        <request index="0" response="0101110000" foes="0101110000" cont="0"/>
        <request index="1" response="1111110000" foes="1111110000" cont="0"/>
        <request index="2" response="0101110010" foes="0101110010" cont="1"/>
        <request index="3" response="1111110000" foes="1111110000" cont="0"/>
        <request index="4" response="0000000000" foes="0000001111" cont="0"/>
        <request index="5" response="0000000000" foes="0000001111" cont="0"/>
        <request index="6" response="0000000000" foes="0000001111" cont="0"/>
        <request index="7" response="0100000000" foes="0100001010" cont="1"/>
        <request index="8" response="0000000000" foes="0000001111" cont="0"/>
        <request index="9" response="0000000000" foes="0000001010" cont="1"/>
    </junction>
    <junction id="E" type="traffic_light" x="600.00" y="600.00" incLanes="BE_0 BE_1 DE_0 DE_1 DE_2 DE_3" intLanes=":E_0_0 :E_10_0 :E_2_0 :E_11_0 :E_4_0 :E_5_0 :E_12_0 :E_7_0 :E_7_1 :E_7_2" shape="593.45,601.45 599.95,601.45 601.45,599.95 601.45,586.85 599.95,585.35 593.45,585.35 591.95,586.85 591.95,599.95">
        <request index="0" response="1111110000" foes="1111110000" cont="0"/>
        <request index="1" response="1110100100" foes="1110100100" cont="1"/>
        <request index="2" response="1111110000" foes="1111110000" cont="0"/>
        <request index="3" response="1110100000" foes="1110100000" cont="1"/>
        <request index="4" response="0000000000" foes="0000000101" cont="0"/>
        <request index="5" response="0000000000" foes="0000001111" cont="0"/>
        <request index="6" response="0000100000" foes="0000100101" cont="1"/>
        <request index="7" response="0000000000" foes="0000001111" cont="0"/>
        <request index="8" response="0000000000" foes="0000001111" cont="0"/>
        <request index="9" response="0000000000" foes="0000001111" cont="0"/>
    </junction>
    <junction id="F" type="dead_end" x="900.00" y="600.00" incLanes="EF_0 EF_1 EF_2 EF_3" intLanes="" shape="900.00,586.85 900.00,599.95"/>
    <junction id="G" type="dead_end" x="0.00" y="300.00" incLanes="HG_0 HG_1 HG_2" intLanes="" shape="-0.00,309.85 -0.00,300.05"/>
    <junction id="H" type="traffic_light" x="300.00" y="300.00" incLanes="IH_0 IH_1 IH_2 KH_0 KH_1" intLanes=":H_0_0 :H_1_0 :H_2_0 :H_2_1 :H_2_2 :H_5_0 :H_9_0 :H_7_0 :H_10_0" shape="300.05,311.35 306.55,311.35 308.05,309.85 308.05,300.05 306.55,298.55 300.05,298.55 298.55,300.05 298.55,309.85">
        <request index="0" response="000000000" foes="010100000" cont="0"/>
        <request index="1" response="000000000" foes="010100000" cont="0"/>
        <request index="2" response="000000000" foes="111100000" cont="0"/>
        <request index="3" response="000000000" foes="111100000" cont="0"/>
        <request index="4" response="000000000" foes="111100000" cont="0"/>
        <request index="5" response="000011111" foes="000011111" cont="0"/>
        <request index="6" response="010011100" foes="010011100" cont="1"/>
        <request index="7" response="000011111" foes="000011111" cont="0"/>
        <request index="8" response="000011100" foes="000011100" cont="1"/>
    </junction>
    <junction id="I" type="traffic_light" x="600.00" y="300.00" incLanes="EI_0 EI_1 JI_0 JI_1 JI_2" intLanes=":I_0_0 :I_1_0 :I_9_0 :I_3_0 :I_4_0 :I_4_1 :I_10_0 :I_7_0 :I_11_0" shape="593.45,311.35 599.95,311.35 601.45,309.85 601.45,300.05 599.95,298.55 593.45,298.55 591.95,300.05 591.95,309.85">
        <request index="0" response="010110000" foes="010110000" cont="0"/>
        <request index="1" response="111110000" foes="111110000" cont="0"/>
        <request index="2" response="010110010" foes="010110010" cont="1"/>
        <request index="3" response="111110000" foes="111110000" cont="0"/>
        <request index="4" response="000000000" foes="000001111" cont="0"/>
        <request index="5" response="000000000" foes="000001111" cont="0"/>
        <request index="6" response="010000000" foes="010001010" cont="1"/>
        <request index="7" response="000000000" foes="000001111" cont="0"/>
        <request index="8" response="000000000" foes="000001010" cont="1"/>
    </junction>
    <junction id="J" type="dead_end" x="900.00" y="300.00" incLanes="" intLanes="" shape="900.00,300.05 900.00,309.85"/>
    <junction id="K" type="dead_end" x="300.00" y="0.00" incLanes="" intLanes="" shape="300.05,-0.00 306.55,-0.00"/>
    <junction id="L" type="dead_end" x="600.00" y="0.00" incLanes="IL_0 IL_1" intLanes="" shape="593.45,-0.00 599.95,-0.00"/>

    <junction id=":D_10_0" type="internal" x="303.35" y="590.21" incLanes=":D_2_0 HD_0" intLanes=":D_1_0 :D_4_0 :D_4_1 :D_4_2 :D_8_0"/>
    <junction id=":D_11_0" type="internal" x="300.05" y="595.26" incLanes=":D_7_0" intLanes=":D_1_0 :D_3_0 :D_8_0"/>
    <junction id=":D_12_0" type="internal" x="300.05" y="598.63" incLanes=":D_9_0" intLanes=":D_1_0 :D_3_0"/>
    <junction id=":E_10_0" type="internal" x="595.26" y="599.95" incLanes=":E_1_0 DE_0 DE_1 DE_2 DE_3" intLanes=":E_2_0 :E_5_0 :E_7_0 :E_7_1 :E_7_2"/>
    <junction id=":E_11_0" type="internal" x="598.63" y="599.95" incLanes=":E_3_0 DE_0 DE_1 DE_2 DE_3" intLanes=":E_5_0 :E_7_0 :E_7_1 :E_7_2"/>
    <junction id=":E_12_0" type="internal" x="596.81" y="590.05" incLanes=":E_6_0 DE_0" intLanes=":E_0_0 :E_2_0 :E_5_0"/>
    <junction id=":H_9_0" type="internal" x="304.74" y="300.05" incLanes=":H_6_0 IH_0 IH_1 IH_2" intLanes=":H_2_0 :H_2_1 :H_2_2 :H_7_0"/>
    <junction id=":H_10_0" type="internal" x="301.37" y="300.05" incLanes=":H_8_0 IH_0 IH_1 IH_2" intLanes=":H_2_0 :H_2_1 :H_2_2"/>
    <junction id=":I_9_0" type="internal" x="596.65" y="306.49" incLanes=":I_2_0 EI_0" intLanes=":I_1_0 :I_4_0 :I_4_1 :I_7_0"/>
    <junction id=":I_10_0" type="internal" x="599.95" y="304.74" incLanes=":I_6_0" intLanes=":I_1_0 :I_3_0 :I_7_0"/>
    <junction id=":I_11_0" type="internal" x="599.95" y="301.37" incLanes=":I_8_0" intLanes=":I_1_0 :I_3_0"/>

    <connection from="BE" to="EI" fromLane="0" toLane="0" via=":E_0_0" tl="2" linkIndex="10" dir="s" state="o"/>
    <connection from="BE" to="EF" fromLane="0" toLane="2" via=":E_1_0" tl="2" linkIndex="11" dir="l" state="o"/>
    <connection from="BE" to="EI" fromLane="1" toLane="1" via=":E_2_0" tl="2" linkIndex="12" dir="s" state="o"/>
    <connection from="BE" to="EF" fromLane="1" toLane="3" via=":E_3_0" tl="2" linkIndex="13" dir="l" state="o"/>
    <connection from="CD" to="DE" fromLane="0" toLane="0" via=":D_4_0" tl="2" linkIndex="4" dir="s" state="o"/>
    <connection from="CD" to="DE" fromLane="1" toLane="1" via=":D_4_1" tl="2" linkIndex="5" dir="s" state="o"/>
    <connection from="CD" to="DE" fromLane="2" toLane="2" via=":D_4_2" tl="2" linkIndex="6" dir="s" state="o"/>
    <connection from="CD" to="DA" fromLane="2" toLane="0" via=":D_7_0" tl="2" linkIndex="7" dir="l" state="o"/>
    <connection from="CD" to="DE" fromLane="3" toLane="3" via=":D_8_0" tl="2" linkIndex="8" dir="s" state="o"/>
    <connection from="CD" to="DA" fromLane="3" toLane="1" via=":D_9_0" tl="2" linkIndex="9" dir="l" state="o"/>
    <connection from="DE" to="EI" fromLane="0" toLane="0" via=":E_4_0" tl="2" linkIndex="14" dir="r" state="o"/>
    <connection from="DE" to="EF" fromLane="0" toLane="0" via=":E_5_0" tl="2" linkIndex="15" dir="s" state="o"/>
    <connection from="DE" to="EI" fromLane="1" toLane="1" via=":E_6_0" tl="2" linkIndex="16" dir="r" state="o"/>
    <connection from="DE" to="EF" fromLane="1" toLane="1" via=":E_7_0" tl="2" linkIndex="17" dir="s" state="o"/>
    <connection from="DE" to="EF" fromLane="2" toLane="2" via=":E_7_1" tl="2" linkIndex="18" dir="s" state="o"/>
    <connection from="DE" to="EF" fromLane="3" toLane="3" via=":E_7_2" tl="2" linkIndex="19" dir="s" state="o"/>
    <connection from="EI" to="IH" fromLane="0" toLane="0" via=":I_0_0" tl="2" linkIndex="29" dir="r" state="o"/>
    <connection from="EI" to="IL" fromLane="0" toLane="0" via=":I_1_0" tl="2" linkIndex="30" dir="s" state="o"/>
    <connection from="EI" to="IH" fromLane="1" toLane="1" via=":I_2_0" tl="2" linkIndex="31" dir="r" state="o"/>
    <connection from="EI" to="IL" fromLane="1" toLane="1" via=":I_3_0" tl="2" linkIndex="32" dir="s" state="o"/>
    <connection from="HD" to="DE" fromLane="0" toLane="0" via=":D_0_0" tl="2" linkIndex="0" dir="r" state="o"/>
    <connection from="HD" to="DA" fromLane="0" toLane="0" via=":D_1_0" tl="2" linkIndex="1" dir="s" state="o"/>
    <connection from="HD" to="DE" fromLane="1" toLane="1" via=":D_2_0" tl="2" linkIndex="2" dir="r" state="o"/>
    <connection from="HD" to="DA" fromLane="1" toLane="1" via=":D_3_0" tl="2" linkIndex="3" dir="s" state="o"/>
    <connection from="IH" to="HD" fromLane="0" toLane="0" via=":H_0_0" tl="2" linkIndex="20" dir="r" state="o"/>
    <connection from="IH" to="HD" fromLane="0" toLane="1" via=":H_1_0" tl="2" linkIndex="21" dir="r" state="o"/>
    <connection from="IH" to="HG" fromLane="0" toLane="0" via=":H_2_0" tl="2" linkIndex="22" dir="s" state="o"/>
    <connection from="IH" to="HG" fromLane="1" toLane="1" via=":H_2_1" tl="2" linkIndex="23" dir="s" state="o"/>
    <connection from="IH" to="HG" fromLane="2" toLane="2" via=":H_2_2" tl="2" linkIndex="24" dir="s" state="o"/>
    <connection from="JI" to="IH" fromLane="0" toLane="0" via=":I_4_0" tl="2" linkIndex="33" dir="s" state="o"/>
    <connection from="JI" to="IH" fromLane="1" toLane="1" via=":I_4_1" tl="2" linkIndex="34" dir="s" state="o"/>
    <connection from="JI" to="IL" fromLane="1" toLane="0" via=":I_6_0" tl="2" linkIndex="35" dir="l" state="o"/>
    <connection from="JI" to="IH" fromLane="2" toLane="2" via=":I_7_0" tl="2" linkIndex="36" dir="s" state="o"/>
    <connection from="JI" to="IL" fromLane="2" toLane="1" via=":I_8_0" tl="2" linkIndex="37" dir="l" state="o"/>
    <connection from="KH" to="HD" fromLane="0" toLane="0" via=":H_5_0" tl="2" linkIndex="25" dir="s" state="o"/>
    <connection from="KH" to="HG" fromLane="0" toLane="1" via=":H_6_0" tl="2" linkIndex="26" dir="l" state="o"/>
    <connection from="KH" to="HD" fromLane="1" toLane="1" via=":H_7_0" tl="2" linkIndex="27" dir="s" state="o"/>
    <connection from="KH" to="HG" fromLane="1" toLane="2" via=":H_8_0" tl="2" linkIndex="28" dir="l" state="o"/>

    <connection from=":D_0" to="DE" fromLane="0" toLane="0" dir="s" state="M"/>
    <connection from=":D_1" to="DA" fromLane="0" toLane="0" dir="s" state="M"/>
    <connection from=":D_2" to="DE" fromLane="0" toLane="1" via=":D_10_0" dir="s" state="m"/>
    <connection from=":D_10" to="DE" fromLane="0" toLane="1" dir="s" state="M"/>
    <connection from=":D_3" to="DA" fromLane="0" toLane="1" dir="s" state="M"/>
    <connection from=":D_4" to="DE" fromLane="0" toLane="0" dir="s" state="M"/>
    <connection from=":D_4" to="DE" fromLane="1" toLane="1" dir="s" state="M"/>
    <connection from=":D_4" to="DE" fromLane="2" toLane="2" dir="s" state="M"/>
    <connection from=":D_7" to="DA" fromLane="0" toLane="0" via=":D_11_0" dir="s" state="m"/>
    <connection from=":D_11" to="DA" fromLane="0" toLane="0" dir="s" state="M"/>
    <connection from=":D_8" to="DE" fromLane="0" toLane="3" dir="s" state="M"/>
    <connection from=":D_9" to="DA" fromLane="0" toLane="1" via=":D_12_0" dir="s" state="m"/>
    <connection from=":D_12" to="DA" fromLane="0" toLane="1" dir="s" state="M"/>
    <connection from=":E_0" to="EI" fromLane="0" toLane="0" dir="s" state="M"/>
    <connection from=":E_1" to="EF" fromLane="0" toLane="2" via=":E_10_0" dir="s" state="m"/>
    <connection from=":E_10" to="EF" fromLane="0" toLane="2" dir="s" state="M"/>
    <connection from=":E_2" to="EI" fromLane="0" toLane="1" dir="s" state="M"/>
    <connection from=":E_3" to="EF" fromLane="0" toLane="3" via=":E_11_0" dir="s" state="m"/>
    <connection from=":E_11" to="EF" fromLane="0" toLane="3" dir="s" state="M"/>
    <connection from=":E_4" to="EI" fromLane="0" toLane="0" dir="s" state="M"/>
    <connection from=":E_5" to="EF" fromLane="0" toLane="0" dir="s" state="M"/>
    <connection from=":E_6" to="EI" fromLane="0" toLane="1" via=":E_12_0" dir="s" state="m"/>
    <connection from=":E_12" to="EI" fromLane="0" toLane="1" dir="s" state="M"/>
    <connection from=":E_7" to="EF" fromLane="0" toLane="1" dir="s" state="M"/>
    <connection from=":E_7" to="EF" fromLane="1" toLane="2" dir="s" state="M"/>
    <connection from=":E_7" to="EF" fromLane="2" toLane="3" dir="s" state="M"/>
    <connection from=":H_0" to="HD" fromLane="0" toLane="0" dir="s" state="M"/>
    <connection from=":H_1" to="HD" fromLane="0" toLane="1" dir="s" state="M"/>
    <connection from=":H_2" to="HG" fromLane="0" toLane="0" dir="s" state="M"/>
    <connection from=":H_2" to="HG" fromLane="1" toLane="1" dir="s" state="M"/>
    <connection from=":H_2" to="HG" fromLane="2" toLane="2" dir="s" state="M"/>
    <connection from=":H_5" to="HD" fromLane="0" toLane="0" dir="s" state="M"/>
    <connection from=":H_6" to="HG" fromLane="0" toLane="1" via=":H_9_0" dir="s" state="m"/>
    <connection from=":H_9" to="HG" fromLane="0" toLane="1" dir="s" state="M"/>
    <connection from=":H_7" to="HD" fromLane="0" toLane="1" dir="s" state="M"/>
    <connection from=":H_8" to="HG" fromLane="0" toLane="2" via=":H_10_0" dir="s" state="m"/>
    <connection from=":H_10" to="HG" fromLane="0" toLane="2" dir="s" state="M"/>
    <connection from=":I_0" to="IH" fromLane="0" toLane="0" dir="s" state="M"/>
    <connection from=":I_1" to="IL" fromLane="0" toLane="0" dir="s" state="M"/>
    <connection from=":I_2" to="IH" fromLane="0" toLane="1" via=":I_9_0" dir="s" state="m"/>
    <connection from=":I_9" to="IH" fromLane="0" toLane="1" dir="s" state="M"/>
    <connection from=":I_3" to="IL" fromLane="0" toLane="1" dir="s" state="M"/>
    <connection from=":I_4" to="IH" fromLane="0" toLane="0" dir="s" state="M"/>
    <connection from=":I_4" to="IH" fromLane="1" toLane="1" dir="s" state="M"/>
    <connection from=":I_6" to="IL" fromLane="0" toLane="0" via=":I_10_0" dir="s" state="m"/>
    <connection from=":I_10" to="IL" fromLane="0" toLane="0" dir="s" state="M"/>
    <connection from=":I_7" to="IH" fromLane="0" toLane="2" dir="s" state="M"/>
    <connection from=":I_8" to="IL" fromLane="0" toLane="1" via=":I_11_0" dir="s" state="m"/>
    <connection from=":I_11" to="IL" fromLane="0" toLane="1" dir="s" state="M"/>

</net>
