<?xml version="1.0" encoding="UTF-8"?>
<nodes version="0.27" xmlns:xsi="http://www.w3.org/2001/XMLSchema-instance" xsi:noNamespaceSchemaLocation="http://sumo.dlr.de/xsd/nodes_file.xsd">
    <location netOffset="0.00,0.00" convBoundary="-450.00,-450.00,450.00,450.00" origBoundary="-10000000000.00,-10000000000.00,10000000000.00,10000000000.00" projParameter="!" />

    <!-- spawns and destinations -->
    <node id="A" x="-150.00" y="450.00" type="dead_end" />
    <node id="B" x="150.00" y="450.00" type="dead_end" />
    <node id="C" x="-450.00" y="150.00" type="dead_end" />
    <node id="F" x="450.00" y="150.00" type="dead_end" />
    <node id="G" x="-450.00" y="-150.00" type="dead_end" />
    <node id="J" x="450.00" y="-150.00" type="dead_end" />
    <node id="K" x="-150.00" y="-450.00" type="dead_end" />
    <node id="L" x="150.00" y="-450.00" type="dead_end" />

    <!-- intersections -->
    <node id="D" x="-150.00" y="150.00" type="traffic_light" tl="D" />
    <node id="E" x="150.00" y="150.00" type="traffic_light" tl="E" />
    <node id="H" x="-150.00" y="-150.00" type="traffic_light" tl="H" />
    <node id="I" x="150.00" y="-150.00" type="traffic_light" tl="I" />
</nodes>
