<?xml version="1.0" encoding="UTF-8"?>
<routes>
    <vType id="CAR" maxSpeed="50" accel="2.6" decel="2.5" sigma="0.2" speedDev="0.2" vClass="passenger" color="#007AFF" minGap="0" />
</routes>
