<routes>
<flow departPos="base" from="BE" id="flow_0" probability="0.01" to="DA" type="CAR" /><flow departPos="base" from="BE" id="flow_1" probability="0.01" to="IL" type="CAR" /><flow departPos="base" from="BE" id="flow_2" probability="0.01" to="EF" type="CAR" /><flow departPos="base" from="BE" id="flow_3" probability="0.01" to="HG" type="CAR" /><flow departPos="base" from="KH" id="flow_4" probability="0.01" to="DA" type="CAR" /><flow departPos="base" from="KH" id="flow_5" probability="0.01" to="IL" type="CAR" /><flow departPos="base" from="KH" id="flow_6" probability="0.01" to="EF" type="CAR" /><flow departPos="base" from="KH" id="flow_7" probability="0.01" to="HG" type="CAR" /><flow departPos="base" from="CD" id="flow_8" probability="0.01" to="DA" type="CAR" /><flow departPos="base" from="CD" id="flow_9" probability="0.01" to="IL" type="CAR" /><flow departPos="base" from="CD" id="flow_10" probability="0.01" to="EF" type="CAR" /><flow departPos="base" from="CD" id="flow_11" probability="0.01" to="HG" type="CAR" /><flow departPos="base" from="JI" id="flow_12" probability="0.01" to="DA" type="CAR" /><flow departPos="base" from="JI" id="flow_13" probability="0.01" to="IL" type="CAR" /><flow departPos="base" from="JI" id="flow_14" probability="0.01" to="EF" type="CAR" /><flow departPos="base" from="JI" id="flow_15" probability="0.01" to="HG" type="CAR" /></routes>