<?xml version="1.0" encoding="UTF-8"?>
<routes>
    <vType id="CAR" maxSpeed="50" accel="2.6" decel="2.5" vClass="passenger" color="#007AFF" minGap="0" />
    <!-- sigma="0.2" jmIgnoreKeepClearTime="400" speedDev="0.2"-->

    <flow id="pkw1" type="CAR" from="AB" to="BD" departPos="base" departLane="0" period="10" />
    <flow id="pkw2" type="CAR" from="CB" to="BD" departPos="base" departLane="0" period="10" />

</routes>
